<routes><person color="0,0,1" depart="0" id="person0"><walk edges="GolgitoGiuriati GiuriatitoPonzio" /></person><person color="0,0,1" depart="10" id="person1"><walk edges="GiuriatitoPonzio PonziotoDEIB" /></person><person color="0,0,1" depart="20" id="person2"><walk edges="DEIBtoPonzio PonziotoGiuriati" /></person><person color="0,0,1" depart="30" id="person3"><walk edges="DEIBtoGolgi GolgitoGiuriati" /></person><person color="0,0,1" depart="40" id="person4"><walk edges="GolgitoPonzio PonziotoGolgi" /></person><person color="0,0,1" depart="50" id="person5"><walk edges="PonziotoGolgi GolgitoDEIB" /></person><person color="0,0,1" depart="60" id="person6"><walk edges="GiuriatitoGolgi GolgitoPonzio" /></person><person color="0,0,1" depart="70" id="person7"><walk edges="GiuriatitoGolgi GolgitoPonzio" /></person><person color="0,0,1" depart="80" id="person8"><walk edges="GolgitoPonzio PonziotoGolgi" /></person><person color="0,0,1" depart="90" id="person9"><walk edges="GolgitoPonzio PonziotoGolgi" /></person><person color="0,0,1" depart="100" id="person10"><walk edges="GolgitoPonzio PonziotoGolgi" /></person><person color="0,0,1" depart="110" id="person11"><walk edges="DEIBtoGolgi GolgitoGiuriati" /></person><person color="0,0,1" depart="120" id="person12"><walk edges="DEIBtoGiuriati GiuriatitoGolgi" /></person><person color="0,0,1" depart="130" id="person13"><walk edges="DEIBtoGolgi GolgitoGiuriati" /></person><person color="0,0,1" depart="140" id="person14"><walk edges="DEIBtoGiuriati GiuriatitoGolgi" /></person><person color="0,0,1" depart="150" id="person15"><walk edges="DEIBtoGiuriati GiuriatitoGolgi" /></person><person color="0,0,1" depart="160" id="person16"><walk edges="PonziotoDEIB DEIBtoGiuriati" /></person><person color="0,0,1" depart="170" id="person17"><walk edges="GolgitoGiuriati GiuriatitoPonzio" /></person><person color="0,0,1" depart="180" id="person18"><walk edges="GolgitoPonzio PonziotoGolgi" /></person><person color="0,0,1" depart="190" id="person19"><walk edges="GiuriatitoGolgi GolgitoPonzio" /></person><person color="0,0,1" depart="200" id="person20"><walk edges="PonziotoGolgi GolgitoDEIB" /></person><person color="0,0,1" depart="210" id="person21"><walk edges="PonziotoDEIB DEIBtoGiuriati" /></person><person color="0,0,1" depart="220" id="person22"><walk edges="PonziotoDEIB DEIBtoGiuriati" /></person><person color="0,0,1" depart="230" id="person23"><walk edges="DEIBtoGolgi GolgitoGiuriati" /></person><person color="0,0,1" depart="240" id="person24"><walk edges="GolgitoPonzio PonziotoGolgi" /></person><person color="0,0,1" depart="250" id="person25"><walk edges="PonziotoGolgi GolgitoDEIB" /></person><person color="0,0,1" depart="260" id="person26"><walk edges="DEIBtoGolgi GolgitoGiuriati" /></person><person color="0,0,1" depart="270" id="person27"><walk edges="GiuriatitoPonzio PonziotoDEIB" /></person><person color="0,0,1" depart="280" id="person28"><walk edges="PonziotoGolgi GolgitoDEIB" /></person><person color="0,0,1" depart="290" id="person29"><walk edges="PonziotoDEIB DEIBtoGiuriati" /></person></routes>