<routes>
    <person id="person0" depart="0">
        <walk from="towardsGolgi" to="towardsPolimi" departPos="-220" arrivalPos="10"/>
    </person>
</routes>