<configuration>
	<input>
		<net-file value="poli2.net.xml"/>
		<gui-settings-file value="poli.settings.xml"/>
	</input>
	<time>
		<begin value="0"/>
		<end value="10000"/>
	</time>
</configuration>
