<?xml version="1.0" encoding="UTF-8"?>
<!-- generated on 2018-06-07 14:49:43.960581 by $Id$
  options: <doubleminus>allow-fringe -n gate.net.xml -e 50
-->
<routes xmlns:xsi="http://www.w3.org/2001/XMLSchema-instance" xsi:noNamespaceSchemaLocation="http://sumo.dlr.de/xsd/routes_file.xsd">
</routes>
