<routes>
    <vType accel="1.0" decel="5.0" id="Car" length="2.0" maxSpeed="45.0" sigma="0.0" />
    <route id="route0" edges="1to2 out"/>
    <route id="route1" edges="3to2 in"/>
    <vehicle depart="1" id="veh0" route="route0" type="Car" color="0,1,0" />
    <vehicle depart="1" id="veh1" route="route1" type="Car" color="1,0,0" />
</routes>