<?xml version="1.0" encoding="UTF-8"?>

<!-- generated on Wed Apr 29 15:06:10 2015 by SUMO duarouter Version svn
<?xml version="1.0" encoding="UTF-8"?>

<configuration xmlns:xsi="http://www.w3.org/2001/XMLSchema-instance" xsi:noNamespaceSchemaLocation="http://sumo.dlr.de/xsd/duarouterConfiguration.xsd">

    <input>
        <net-file value="Munich.net.xml"/>
        <additional-files value="car.add.xml"/>
        <trip-files value="trips.trips.xml"/>
    </input>

    <output>
        <output-file value="cars.rou.xml"/>
    </output>

    <processing>
        <ignore-errors value="true"/>
    </processing>

    <time>
        <begin value="0"/>
        <end value="1000.0"/>
    </time>

    <report>
        <no-step-log value="true"/>
    </report>

</configuration>
-->

<routes xmlns:xsi="http://www.w3.org/2001/XMLSchema-instance" xsi:noNamespaceSchemaLocation="http://sumo.dlr.de/xsd/routes_file.xsd">
    <vType id="car" length="4.50" minGap="1.50" speedDev="0.20" vClass="passenger"/>
    <vehicle id="2" type="car" depart="2.80" departLane="best" departSpeed="max">
        <route edges="-167443078 167443078 167443080#0 167443080#1 31232317#0 31232317#1"/>
    </vehicle>
    <vehicle id="3" type="car" depart="4.20" departLane="best" departSpeed="max">
        <route edges="73260233#0"/>
    </vehicle>
    <vehicle id="5" type="car" depart="7.00" departLane="best" departSpeed="max">
        <route edges="50636516#1 118282031#1 257527112#0 257527112#1 28338977#0 28338977#1 28338975 167443079#0 -167443079#0 28338974 167444032 40317918 149929927#0 149929927#1 28338981"/>
    </vehicle>
    <vehicle id="6" type="car" depart="8.40" departLane="best" departSpeed="max">
        <route edges="35881800 144692955 4592512#0 4592512#1 -27350260 27350260 -27350221 73260233#2 145036128#0 145036128#1 145036128#2 -167443078 -167443077 -167443079#1 -167443079#0 28338974 167444032 40317918 149929927#0 149929927#1 292960298#0 292960298#1 292960298#2 118282031#1"/>
    </vehicle>
    <vehicle id="9" type="car" depart="12.60" departLane="best" departSpeed="max">
        <route edges="4662372 34240121 145036128#0 145036128#1 145036128#2 -167443078 -167443077 -167443079#1 -167443079#0 146050879#0 146050879#1 28338979#0 28338979#1"/>
    </vehicle>
    <vehicle id="11" type="car" depart="15.40" departLane="best" departSpeed="max">
        <route edges="145786279#7 -145786279#7 -145786279#6 -145786279#5 -145786279#4 -145786279#1 -145786279#0 145786280#0 145786280#1 50636516#0 50636516#1 118282031#1 257527112#0 257527112#1 28338977#0 28338977#1 28338975 167443079#0 -167443079#0 28338974"/>
    </vehicle>
    <vehicle id="12" type="car" depart="16.80" departLane="best" departSpeed="max">
        <route edges="-25507204#1 25507204#1 3845695#0 4016238 120199713#2 120199713#3 19371348#1 145786280#0 -145786280#0"/>
    </vehicle>
    <vehicle id="15" type="car" depart="21.00" departLane="best" departSpeed="max">
        <route edges="-25507204#0 25507204#0 25507204#1 3845695#0 4016238 -120199713#1"/>
    </vehicle>
    <vehicle id="17" type="car" depart="23.80" departLane="best" departSpeed="max">
        <route edges="154782357 93192054 292960298#2 118282031#1 257527112#0 257527112#1 28338977#0 28338977#1 28338975 167443079#0 167443079#1 167443077 167443078 167443080#0 167443080#1 31232317#0 31232317#1"/>
    </vehicle>
    <vehicle id="18" type="car" depart="25.20" departLane="best" departSpeed="max">
        <route edges="-145786280#0 145786280#0 145786280#1 50636516#0 50636516#1 118282031#1 257527112#0 257527112#1 28338977#0 28338977#1 28338975 167443079#0 -167443079#0 28338974 167444032 40317918 149929927#0 149929927#1 28338981 86334240 292960291"/>
    </vehicle>
    <vehicle id="22" type="car" depart="30.80" departLane="best" departSpeed="max">
        <route edges="-3845695#3 -3845695#2 -3845695#1 4016238 -120199713#1 -120199713#0 19371510 278513973#0 278513973#1 -151878378 -151878388#1 -151878388#0 151878388#0"/>
    </vehicle>
    <vehicle id="25" type="car" depart="35.00" departLane="best" departSpeed="max">
        <route edges="292960293 292960292 145431470"/>
    </vehicle>
    <vehicle id="27" type="car" depart="37.80" departLane="best" departSpeed="max">
        <route edges="292960293 35881800 144692955 4592512#0 4592512#1 -27350260 27350260 -27350221 73260233#2 145036128#0 145036128#1 145036128#2 -167443078"/>
    </vehicle>
    <vehicle id="32" type="car" depart="44.80" departLane="best" departSpeed="max">
        <route edges="-316667284#5 316667284#5 316667284#6 145036129#0 145036129#1 145036129#2 145036129#3 27350260 -27350221 73260233#2 145036128#0 145036128#1 145036128#2 -167443078 -167443077 -167443079#1 -167443079#0 28338974 167444032 40317918 149929927#0 149929927#1 28338981"/>
    </vehicle>
    <vehicle id="36" type="car" depart="50.40" departLane="best" departSpeed="max">
        <route edges="-145786279#1 -145786279#0 145786280#0 145786280#1 50636516#0 50636516#1 118282031#1 257527112#0 257527112#1 28338977#0 28338977#1 28338975 146050879#0 146050879#1 28338979#0 26557052#0 26557052#1 -26798625#0 -26798626 -32790538 4662372 34240121 145036128#0 145036128#1 30965182 27350220#0 27350220#1"/>
    </vehicle>
    <vehicle id="39" type="car" depart="54.60" departLane="best" departSpeed="max">
        <route edges="3845695#1 -3845695#1 4016238 120199713#2 120199713#3 19371348#1 145786280#0 145786280#1 50636516#0 50636516#1 118282031#1 257527112#0 257527112#1 28338977#0 28338977#1 28338975 167443079#0 167443079#1 167443077 167443078 167443080#0"/>
    </vehicle>
    <vehicle id="41" type="car" depart="57.40" departLane="best" departSpeed="max">
        <route edges="35881800 144692955 4592512#0 4592512#1 31232317#0 31232317#1"/>
    </vehicle>
    <vehicle id="43" type="car" depart="60.20" departLane="best" departSpeed="max">
        <route edges="154782357 93192054 292960298#2 118282031#1 257527112#0 257527112#1 28338977#0 28338977#1 28338975 167443079#0 -167443079#0 28338974 167444032 40317918 149929927#0 149929927#1 28338981"/>
    </vehicle>
    <vehicle id="45" type="car" depart="63.00" departLane="best" departSpeed="max">
        <route edges="146050879#1 28338979#0 26557052#0 26557052#1 -26798625#0 -26798626 -32790538 32790537#0 32790537#1 73260233#0"/>
    </vehicle>
    <vehicle id="46" type="car" depart="64.40" departLane="best" departSpeed="max">
        <route edges="-145786280#0 145786280#0 145786280#1 50636516#0 50636516#1 118282031#1 257527112#0 257527112#1 28338977#0 28338977#1 28338975 167443079#0 167443079#1 167443077 167443078"/>
    </vehicle>
    <vehicle id="47" type="car" depart="65.80" departLane="best" departSpeed="max">
        <route edges="26798625#0 -26798625#0 -26798626 -32790538 4662372 34240121 145036128#0 145036128#1 145036128#2 -167443078 -167443077 -167443079#1 -167443079#0 28338974 167444032 40317918 149929927#0 149929927#1 28338981 86334240"/>
    </vehicle>
    <vehicle id="48" type="car" depart="67.20" departLane="best" departSpeed="max">
        <route edges="-3845695#2 -3845695#1 4016238 120199713#2 120199713#3 19371348#1 145786279#0 145786279#1 145786279#4 145786279#5"/>
    </vehicle>
    <vehicle id="50" type="car" depart="70.00" departLane="best" departSpeed="max">
        <route edges="-3845695#2 -3845695#1 4016238 120199713#2 120199713#3 19371348#1 145786280#0 145786280#1 50636516#0 50636516#1 118282031#1 257527112#0 257527112#1 28338977#0 28338977#1 28338975 146050879#0 146050879#1 28338979#0 26557052#0 26557052#1 -26798625#0 -26798626 4645439#0"/>
    </vehicle>
    <vehicle id="53" type="car" depart="74.20" departLane="best" departSpeed="max">
        <route edges="-3845695#3 -3845695#2 -3845695#1 4016238 -4016238"/>
    </vehicle>
    <vehicle id="59" type="car" depart="82.60" departLane="best" departSpeed="max">
        <route edges="19371510 278513973#0 278513973#1 19371003 278513972 19371348#0 19371348#1 145786280#0 -145786280#0"/>
    </vehicle>
    <vehicle id="64" type="car" depart="89.60" departLane="best" departSpeed="max">
        <route edges="19371348#1 145786280#0 145786280#1 50636516#0 50636516#1 118282031#1 257527112#0 257527112#1 28338977#0 28338977#1 28338975 146050879#0 146050879#1 28338979#0 26557052#0 26557052#1 -26798625#0"/>
    </vehicle>
    <vehicle id="66" type="car" depart="92.40" departLane="best" departSpeed="max">
        <route edges="145786279#7 -145786279#7 -145786279#6 -145786279#5 -145786279#4 -145786279#1 -145786279#0 145786280#0 145786280#1 50636516#0 50636516#1 118282031#1 257527112#0 257527112#1 28338977#0 28338977#1 28338975 146050879#0 146050879#1 28338979#0 26557052#0 26557052#1 -26798625#0 -26798626 -32790538 4662372"/>
    </vehicle>
    <vehicle id="68" type="car" depart="95.20" departLane="best" departSpeed="max">
        <route edges="316667284#4 316667284#5 316667284#6 145036129#0 145036129#1 145036129#2 145036129#3 27350260 -27350221 73260233#2 145036128#0 145036128#1 145036128#2 -167443078 -167443077 -167443079#1 -167443079#0 146050879#0 146050879#1 28338979#0 26557052#0 26557052#1"/>
    </vehicle>
    <vehicle id="70" type="car" depart="98.00" departLane="best" departSpeed="max">
        <route edges="315220266 30965374#0 30965374#1 167444033 28338975 167443079#0"/>
    </vehicle>
    <vehicle id="71" type="car" depart="99.40" departLane="best" departSpeed="max">
        <route edges="50636516#1 118282031#1 257527112#0 257527112#1 28338977#0 28338977#1 28338975 146050879#0 146050879#1 28338979#0 26557052#0 26557052#1 -26798625#0 -26798626 4645439#0 4645439#1"/>
    </vehicle>
    <vehicle id="73" type="car" depart="102.20" departLane="best" departSpeed="max">
        <route edges="73260233#0 73260233#1 73260233#2 145036128#0 145036128#1 30965182 27350220#0 27350220#1 26798625#0 -47722621"/>
    </vehicle>
    <vehicle id="75" type="car" depart="105.00" departLane="best" departSpeed="max">
        <route edges="146050887 315220266 30965374#0 30965374#1 167444033 28338975 167443079#0 167443079#1 167443077 167443078"/>
    </vehicle>
    <vehicle id="77" type="car" depart="107.80" departLane="best" departSpeed="max">
        <route edges="154782357 93192054 292960298#2 118282031#1 257527112#0 257527112#1 28338977#0 28338977#1 28338975 167443079#0 -167443079#0 28338974 167444032 40317918 149929927#0 149929927#1 28338981 86334240 292960291"/>
    </vehicle>
    <vehicle id="79" type="car" depart="110.60" departLane="best" departSpeed="max">
        <route edges="73260233#0 73260233#1 73260233#2 145036128#0 145036128#1 30965182 27350220#0 27350220#1 -26798626 -32790538 32790537#0"/>
    </vehicle>
    <vehicle id="82" type="car" depart="114.80" departLane="best" departSpeed="max">
        <route edges="27350220#1 -26798626 -32790538 32790537#0 32790537#1 73260233#0"/>
    </vehicle>
    <vehicle id="84" type="car" depart="117.60" departLane="best" departSpeed="max">
        <route edges="26557052#1 -26798625#0 -26798626 -32790538 32790537#0 32790537#1 73260233#0 73260233#1 27350221 -27350260 -145036129#3 -145036129#2 -145036129#1 -145036129#0 -316667284#6 -316667284#5"/>
    </vehicle>
    <vehicle id="87" type="car" depart="121.80" departLane="best" departSpeed="max">
        <route edges="32790537#0 32790537#1 73260233#0 73260233#1 73260233#2 145036128#0 145036128#1 30965182 27350220#0 27350220#1 26798625#0"/>
    </vehicle>
    <vehicle id="89" type="car" depart="124.60" departLane="best" departSpeed="max">
        <route edges="19371348#0 19371348#1 145786280#0 145786280#1 50636516#0 50636516#1 118282031#1 257527112#0 257527112#1 28338977#0 28338977#1 28338975 146050879#0 146050879#1 28338979#0 26557052#0 26557052#1 -26798625#0 -26798626 -32790538 4662372 34240121 145036128#0 145036128#1 30965182 27350220#0 27350220#1"/>
    </vehicle>
    <vehicle id="90" type="car" depart="126.00" departLane="best" departSpeed="max">
        <route edges="-145786279#7 -145786279#6 -145786279#5 -145786279#4 -145786279#1 -145786279#0 145786280#0 145786280#1 50636516#0 50636516#1 118282031#1 257527112#0 257527112#1 28338977#0 28338977#1 28338975 146050879#0 146050879#1 28338979#0 26557052#0 26557052#1 -26798625#0 -26798626 4645439#0"/>
    </vehicle>
    <vehicle id="91" type="car" depart="127.40" departLane="best" departSpeed="max">
        <route edges="-145036129#1 145036129#1 145036129#2 145036129#3 27350260 -27350221 73260233#2 145036128#0 145036128#1 30965182 27350220#0 27350220#1 -26798626 -32790538 4662372"/>
    </vehicle>
    <vehicle id="93" type="car" depart="130.20" departLane="best" departSpeed="max">
        <route edges="50636516#1 118282031#1 257527112#0 257527112#1 28338977#0 28338977#1 28338975 146050879#0 146050879#1 28338979#0 26557052#0 26557052#1 -26798625#0 -26798626 -32790538 32790537#0 32790537#1 73260233#0 73260233#1 27350221 -27350260 -145036129#3 -145036129#2 -145036129#1"/>
    </vehicle>
    <vehicle id="97" type="car" depart="135.80" departLane="best" departSpeed="max">
        <route edges="-25507204#1 25507204#1 3845695#0 4016238 120199713#2 120199713#3 19371348#1 145786280#0 145786280#1 50636516#0 50636516#1 118282031#1 257527112#0"/>
    </vehicle>
    <vehicle id="98" type="car" depart="137.20" departLane="best" departSpeed="max">
        <route edges="278513972 19371348#0 -120199713#3 -120199713#2"/>
    </vehicle>
    <vehicle id="99" type="car" depart="138.60" departLane="best" departSpeed="max">
        <route edges="4662372 34240121 145036128#0 145036128#1 145036128#2 -167443078 -167443077 -167443079#1 -167443079#0 28338974 167444032 40317918 149929927#0 149929927#1 292960298#0 292960298#1"/>
    </vehicle>
    <vehicle id="100" type="car" depart="140.00" departLane="best" departSpeed="max">
        <route edges="-3845695#2 3845695#2"/>
    </vehicle>
    <vehicle id="101" type="car" depart="141.40" departLane="best" departSpeed="max">
        <route edges="146050879#1"/>
    </vehicle>
    <vehicle id="102" type="car" depart="142.80" departLane="best" departSpeed="max">
        <route edges="151878388#1 151878378 19371003 278513972 19371348#0 19371348#1 145786280#0 145786280#1 50636516#0 50636516#1 118282031#1"/>
    </vehicle>
    <vehicle id="105" type="car" depart="147.00" departLane="best" departSpeed="max">
        <route edges="-120199713#1 -120199713#0 19371348#0 19371348#1 145786280#0 145786280#1 50636516#0 50636516#1 118282031#1"/>
    </vehicle>
    <vehicle id="106" type="car" depart="148.40" departLane="best" departSpeed="max">
        <route edges="57731066 151878388#0 151878388#1 151878378 19371003 278513972 19371348#0 -120199713#3 -120199713#2 -120199713#1"/>
    </vehicle>
    <vehicle id="109" type="car" depart="152.60" departLane="best" departSpeed="max">
        <route edges="292960293 35881800 144692955 4592512#0 4592512#1 -27350260 -145036129#3 -145036129#2 -145036129#1 -145036129#0 -316667284#6 -316667284#5 -316667284#4 -316667284#3 -316667284#2 -316667284#1 -316667284#0"/>
    </vehicle>
    <vehicle id="111" type="car" depart="155.40" departLane="best" departSpeed="max">
        <route edges="278513973#1 19371003 278513972 19371348#0 -120199713#3 -120199713#2 -4016238"/>
    </vehicle>
    <vehicle id="114" type="car" depart="159.60" departLane="best" departSpeed="max">
        <route edges="154782357 93192054 292960298#2 118282031#1"/>
    </vehicle>
    <vehicle id="115" type="car" depart="161.00" departLane="best" departSpeed="max">
        <route edges="145786279#5 -145786279#5 -145786279#4 -145786279#1 -145786279#0 145786280#0"/>
    </vehicle>
    <vehicle id="118" type="car" depart="165.20" departLane="best" departSpeed="max">
        <route edges="-3845695#3 -3845695#2 -3845695#1 4016238 120199713#2 120199713#3 19371348#1 145786280#0 145786280#1 50636516#0 50636516#1"/>
    </vehicle>
    <vehicle id="119" type="car" depart="166.60" departLane="best" departSpeed="max">
        <route edges="-167443079#0 28338974 167444032 40317918 149929927#0 149929927#1 292960298#0 292960298#1"/>
    </vehicle>
    <vehicle id="120" type="car" depart="168.00" departLane="best" departSpeed="max">
        <route edges="73260233#0 73260233#1 73260233#2 145036128#0 145036128#1 145036128#2 -167443078 -167443077 -167443079#1 -167443079#0 28338974 167444032 40317918 149929927#0 149929927#1 292960298#0 292960298#1 292960298#2 118282031#1"/>
    </vehicle>
    <vehicle id="121" type="car" depart="169.40" departLane="best" departSpeed="max">
        <route edges="144692955 4592512#0 4592512#1 -27350260 27350260 -27350221 73260233#2 145036128#0 145036128#1 145036128#2 -167443078 167443078 167443080#0"/>
    </vehicle>
    <vehicle id="125" type="car" depart="175.00" departLane="best" departSpeed="max">
        <route edges="145786279#1 -145786279#1 -145786279#0 145786280#0 145786280#1 50636516#0 50636516#1 118282031#1 257527112#0"/>
    </vehicle>
    <vehicle id="127" type="car" depart="177.80" departLane="best" departSpeed="max">
        <route edges="144692955 4592512#0 4592512#1 -27350260 27350260 -27350221 73260233#2 145036128#0 145036128#1 30965182 27350220#0 27350220#1 -26798626 -32790538 32790537#0 32790537#1 73260233#0"/>
    </vehicle>
    <vehicle id="128" type="car" depart="179.20" departLane="best" departSpeed="max">
        <route edges="-3845696 -3845695#2 -3845695#1 3845695#1"/>
    </vehicle>
    <vehicle id="131" type="car" depart="183.40" departLane="best" departSpeed="max">
        <route edges="19371348#1 145786280#0 145786280#1 50636516#0 50636516#1 118282031#1 257527112#0 257527112#1 28338977#0 28338977#1 28338975 167443079#0 167443079#1 167443077 167443078"/>
    </vehicle>
    <vehicle id="132" type="car" depart="184.80" departLane="best" departSpeed="max">
        <route edges="73260233#0 73260233#1 73260233#2 145036128#0 145036128#1 30965182 27350220#0 27350220#1 -26798626"/>
    </vehicle>
    <vehicle id="133" type="car" depart="186.20" departLane="best" departSpeed="max">
        <route edges="-26572563 27350220#1 -26798626 -32790538 4662372 34240121 145036128#0 145036128#1 145036128#2 -167443078 -167443077 -167443079#1 -167443079#0 28338974 167444032 40317918 149929927#0 149929927#1 292960298#0 292960298#1 292960298#2 118282031#1"/>
    </vehicle>
    <vehicle id="135" type="car" depart="189.00" departLane="best" departSpeed="max">
        <route edges="146050879#1 28338979#0 26557052#0 26557052#1 -26798625#0 -26798626 -32790538 4662372 34240121 145036128#0 145036128#1 145036128#2 -167443078 -167443077 -167443079#1 167443079#1"/>
    </vehicle>
    <vehicle id="137" type="car" depart="191.80" departLane="best" departSpeed="max">
        <route edges="-3845695#3 -3845695#2 -3845695#1 4016238 120199713#2 120199713#3 19371348#1 145786280#0 145786280#1 50636516#0 50636516#1"/>
    </vehicle>
    <vehicle id="138" type="car" depart="193.20" departLane="best" departSpeed="max">
        <route edges="-145786280#0 145786280#0 145786280#1 50636516#0 50636516#1 118282031#1 257527112#0 257527112#1 28338977#0 28338977#1 28338975 146050879#0 146050879#1 28338979#0 26557052#0 26557052#1 -26798625#0 -26798626 -32790538 32790537#0 32790537#1 73260233#0"/>
    </vehicle>
    <vehicle id="143" type="car" depart="200.20" departLane="best" departSpeed="max">
        <route edges="-145786280#0 -19371348#1 -120199713#3 -120199713#2 -4016238 3845695#1 -3845695#1"/>
    </vehicle>
    <vehicle id="145" type="car" depart="203.00" departLane="best" departSpeed="max">
        <route edges="35881800 144692955 4592512#0 4592512#1 -27350260 27350260 -27350221 73260233#2 145036128#0 145036128#1 145036128#2 -167443078 167443078 167443080#0"/>
    </vehicle>
    <vehicle id="148" type="car" depart="207.20" departLane="best" departSpeed="max">
        <route edges="-145786279#5 -145786279#4 -145786279#1 -145786279#0 145786280#0 145786280#1 50636516#0 50636516#1 118282031#1 257527112#0 257527112#1 28338977#0 28338977#1 28338975 146050879#0 146050879#1 28338979#0 26557052#0 26557052#1 -26798625#0 -26798626 -32790538 32790537#0 32790537#1 73260233#0"/>
    </vehicle>
    <vehicle id="150" type="car" depart="210.00" departLane="best" departSpeed="max">
        <route edges="167444032 40317918 149929927#0 149929927#1 292960298#0 292960298#1 292960298#2 118282031#1 257527112#0 257527112#1 28338977#0 28338977#1 28338975 167443079#0 167443079#1 167443077 167443078 -167443078"/>
    </vehicle>
    <vehicle id="154" type="car" depart="215.60" departLane="best" departSpeed="max">
        <route edges="151878388#0 151878388#1 151878378 19371003 278513972 19371348#0 -120199713#3 -120199713#2 -4016238 3845695#1 3845695#2"/>
    </vehicle>
    <vehicle id="155" type="car" depart="217.00" departLane="best" departSpeed="max">
        <route edges="4662372 34240121 145036128#0 145036128#1 145036128#2 -167443078 -167443077 -167443079#1 -167443079#0 28338974 167444032 40317918 149929927#0 149929927#1 28338981 86334240"/>
    </vehicle>
    <vehicle id="156" type="car" depart="218.40" departLane="best" departSpeed="max">
        <route edges="-120199713#1 -120199713#0 19371348#0 19371348#1 145786280#0 145786280#1 50636516#0 50636516#1 118282031#1 257527112#0 257527112#1 28338977#0 28338977#1 28338975 167443079#0 167443079#1 -167443079#1"/>
    </vehicle>
    <vehicle id="160" type="car" depart="224.00" departLane="best" departSpeed="max">
        <route edges="145786280#0 145786280#1 50636516#0 50636516#1 118282031#1 257527112#0 257527112#1 28338977#0 28338977#1 28338975 146050879#0 146050879#1 28338979#0 26557052#0 26557052#1 -26798625#0 -26798626 -32790538"/>
    </vehicle>
    <vehicle id="161" type="car" depart="225.40" departLane="best" departSpeed="max">
        <route edges="145786279#7 -145786279#7 -145786279#6 -145786279#5 -145786279#4 -145786279#1"/>
    </vehicle>
    <vehicle id="164" type="car" depart="229.60" departLane="best" departSpeed="max">
        <route edges="-19371348#1 -120199713#3 -120199713#2 -4016238 3845695#1 3845695#2"/>
    </vehicle>
    <vehicle id="165" type="car" depart="231.00" departLane="best" departSpeed="max">
        <route edges="145786279#1 -145786279#1 -145786279#0 145786280#0 145786280#1 50636516#0 50636516#1 118282031#1 257527112#0 257527112#1 28338977#0 28338977#1 28338975 146050879#0 146050879#1 28338979#0 26557052#0 26557052#1 -26798625#0 -26798626 -32790538 4662372 34240121 145036128#0 145036128#1 30965182 27350220#0 27350220#1"/>
    </vehicle>
    <vehicle id="171" type="car" depart="239.40" departLane="best" departSpeed="max">
        <route edges="-26798625#0 -26798626 -32790538 4662372 34240121 145036128#0 145036128#1 145036128#2 -167443078 -167443077 -167443079#1 -167443079#0 28338974 167444032 40317918 149929927#0 149929927#1 292960298#0 292960298#1 292960298#2 118282031#1"/>
    </vehicle>
    <vehicle id="173" type="car" depart="242.20" departLane="best" departSpeed="max">
        <route edges="-145786279#7"/>
    </vehicle>
    <vehicle id="175" type="car" depart="245.00" departLane="best" departSpeed="max">
        <route edges="-3845695#3 -3845695#2 -3845695#1 4016238 -120199713#1 -120199713#0 19371510 278513973#0 278513973#1 19371003"/>
    </vehicle>
    <vehicle id="177" type="car" depart="247.80" departLane="best" departSpeed="max">
        <route edges="146050887 315220266 30965374#0 30965374#1 167444033 28338975 146050879#0 146050879#1 28338979#0 26557052#0 26557052#1 -26798625#0 -26798626 -32790538 4662372 34240121 145036128#0 145036128#1 30965182 27350220#0 27350220#1"/>
    </vehicle>
    <vehicle id="178" type="car" depart="249.20" departLane="best" departSpeed="max">
        <route edges="-145786280#0 -19371348#1 -120199713#3 -120199713#2 -4016238 3845695#1 3845695#2 3845696"/>
    </vehicle>
    <vehicle id="179" type="car" depart="250.60" departLane="best" departSpeed="max">
        <route edges="-4645439#0 -32790538 4662372 34240121 145036128#0 145036128#1 145036128#2 -167443078 167443078"/>
    </vehicle>
    <vehicle id="181" type="car" depart="253.40" departLane="best" departSpeed="max">
        <route edges="-3845696 -3845695#2 -3845695#1 4016238 -120199713#1 -120199713#0 19371510 278513973#0 278513973#1 -151878378 -151878388#1 151878388#1"/>
    </vehicle>
    <vehicle id="183" type="car" depart="256.20" departLane="best" departSpeed="max">
        <route edges="145036129#0 145036129#1 145036129#2 145036129#3 27350260 -27350221 73260233#2 145036128#0 145036128#1 145036128#2 -167443078 -167443077 -167443079#1 -167443079#0 28338974 167444032 40317918 149929927#0 149929927#1 28338981 86334240 292960291"/>
    </vehicle>
    <vehicle id="185" type="car" depart="259.00" departLane="best" departSpeed="max">
        <route edges="120199713#2 120199713#3 19371348#1 145786280#0 145786280#1 50636516#0 50636516#1 118282031#1 257527112#0 257527112#1 28338977#0 28338977#1 28338975 146050879#0 146050879#1 28338979#0 26557052#0 26557052#1 -26798625#0 -26798626 -32790538 4662372 34240121 145036128#0 145036128#1 30965182 27350220#0 26572563"/>
    </vehicle>
    <vehicle id="186" type="car" depart="260.40" departLane="best" departSpeed="max">
        <route edges="35881800 144692955 4592512#0 4592512#1 -27350260 27350260 -27350221 73260233#2 145036128#0 145036128#1 145036128#2 -167443078 -167443077 -167443079#1 -167443079#0 28338974 167444032 40317918 149929927#0 149929927#1 292960298#0 292960298#1 292960298#2 118282031#1"/>
    </vehicle>
    <vehicle id="193" type="car" depart="270.20" departLane="best" departSpeed="max">
        <route edges="292960293 35881800 144692955 4592512#0 4592512#1 -27350260 27350260 -27350221 73260233#2 145036128#0 145036128#1 30965182 27350220#0 27350220#1 -26798626 4645439#0"/>
    </vehicle>
    <vehicle id="196" type="car" depart="274.40" departLane="best" departSpeed="max">
        <route edges="-120199713#2 120199713#2 120199713#3 19371348#1 145786280#0 145786280#1 50636516#0 50636516#1 118282031#1 257527112#0 257527112#1 28338977#0 28338977#1 28338975 146050879#0 146050879#1 28338979#0 26557052#0 26557052#1 -26798625#0 -26798626 -32790538 32790537#0 32790537#1 73260233#0"/>
    </vehicle>
    <vehicle id="197" type="car" depart="275.80" departLane="best" departSpeed="max">
        <route edges="-316667284#4 316667284#4 316667284#5 316667284#6 145036129#0 145036129#1 145036129#2 145036129#3 27350260 -27350221 73260233#2 145036128#0 145036128#1 145036128#2 -167443078 167443078"/>
    </vehicle>
    <vehicle id="198" type="car" depart="277.20" departLane="best" departSpeed="max">
        <route edges="-145786279#5 145786279#5 145786279#6 145786279#7 -145786279#7"/>
    </vehicle>
    <vehicle id="199" type="car" depart="278.60" departLane="best" departSpeed="max">
        <route edges="145036128#1 145036128#2 -167443078 -167443077 -167443079#1 -167443079#0 28338974 167444032 40317918 149929927#0 149929927#1 292960298#0 292960298#1 292960298#2 118282031#1"/>
    </vehicle>
    <vehicle id="202" type="car" depart="282.80" departLane="best" departSpeed="max">
        <route edges="145786279#5 -145786279#5 -145786279#4 -145786279#1 -145786279#0 145786280#0 145786280#1 50636516#0 50636516#1 118282031#1 257527112#0 257527112#1 28338977#0 28338977#1 28338975 167443079#0 167443079#1 167443077 167443078 167443080#0"/>
    </vehicle>
    <vehicle id="206" type="car" depart="288.40" departLane="best" departSpeed="max">
        <route edges="4662372 34240121 145036128#0 145036128#1 30965182 27350220#0 27350220#1 -26798626 -32790538 32790537#0"/>
    </vehicle>
    <vehicle id="212" type="car" depart="296.80" departLane="best" departSpeed="max">
        <route edges="292960293 35881800 144692955 4592512#0 4592512#1 -27350260 27350260 -27350221 73260233#2 145036128#0 145036128#1 145036128#2 -167443078 -167443077 -167443079#1 -167443079#0 28338974 167444032 40317918 149929927#0 149929927#1 28338981 86334240 292960291"/>
    </vehicle>
    <vehicle id="215" type="car" depart="301.00" departLane="best" departSpeed="max">
        <route edges="145786280#0"/>
    </vehicle>
    <vehicle id="217" type="car" depart="303.80" departLane="best" departSpeed="max">
        <route edges="292960293 292960292 145431470"/>
    </vehicle>
    <vehicle id="220" type="car" depart="308.00" departLane="best" departSpeed="max">
        <route edges="4662372 34240121 145036128#0 145036128#1 145036128#2 -167443078 167443078 167443080#0 167443080#1 31232317#0 31232317#1"/>
    </vehicle>
    <vehicle id="221" type="car" depart="309.40" departLane="best" departSpeed="max">
        <route edges="-145786279#5 -145786279#4 -145786279#1 -145786279#0 145786280#0 145786280#1 50636516#0 50636516#1 118282031#1 257527112#0 257527112#1 28338977#0 28338977#1 28338975 167443079#0 167443079#1 167443077 167443078 167443080#0 167443080#1 31232317#0 31232317#1"/>
    </vehicle>
    <vehicle id="222" type="car" depart="310.80" departLane="best" departSpeed="max">
        <route edges="19371348#1 -19371348#1 -19371348#0 19371510 278513973#0 278513973#1 -151878378 -151878388#1 -151878388#0 151878388#0"/>
    </vehicle>
    <vehicle id="223" type="car" depart="312.20" departLane="best" departSpeed="max">
        <route edges="47722621 -26798625#0 -26798626 -32790538 32790537#0 32790537#1 73260233#0 73260233#1 27350221 -27350260 -145036129#3 -145036129#2 -145036129#1 -145036129#0 -316667284#6"/>
    </vehicle>
    <vehicle id="226" type="car" depart="316.40" departLane="best" departSpeed="max">
        <route edges="-145786279#7 -145786279#6 -145786279#5 -145786279#4 -145786279#1 -145786279#0 145786280#0 145786280#1 50636516#0 50636516#1"/>
    </vehicle>
    <vehicle id="227" type="car" depart="317.80" departLane="best" departSpeed="max">
        <route edges="35881800 144692955 4592512#0 4592512#1 -27350260 27350260 -27350221 73260233#2 145036128#0 145036128#1 145036128#2 -167443078 -167443077 -167443079#1 -167443079#0 28338974 167444032 40317918 149929927#0 149929927#1 292960298#0 292960298#1 292960298#2 118282031#1 257527112#0 257527112#1 28338977#0"/>
    </vehicle>
    <vehicle id="229" type="car" depart="320.60" departLane="best" departSpeed="max">