<?xml version="1.0" encoding="UTF-8"?>

<!-- generated on Wed Apr 29 15:05:53 2015 by SUMO netconvert Version svn
<?xml version="1.0" encoding="UTF-8"?>

<configuration xmlns:xsi="http://www.w3.org/2001/XMLSchema-instance" xsi:noNamespaceSchemaLocation="http://sumo.sourceforge.net/xsd/netconvertConfiguration.xsd">

    <input>
        <osm-files value="Munich.osm"/>
    </input>

    <output>
        <output-file value="Munich.net.xml"/>
    </output>

    <projection>
        <proj.utm value="true"/>
    </projection>

    <tls_building>
        <tls.guess value="true"/>
    </tls_building>

    <processing>
        <osm.elevation value="true"/>
        <roundabouts.guess value="true"/>
        <junctions.join value="true"/>
    </processing>

</configuration>
-->

<net version="0.13" xmlns:xsi="http://www.w3.org/2001/XMLSchema-instance" xsi:noNamespaceSchemaLocation="http://sumo.sourceforge.net/xsd/netconvertConfiguration.xsd">

    <location netOffset="-691190.47,-5334584.42" convBoundary="0.00,0.00,1357.88,2840.92" origBoundary="11.566205,48.134411,11.588487,48.160962" projParameter="+proj=utm +zone=32 +ellps=WGS84 +datum=WGS84 +units=m +no_defs"/>

    <edge id=":1020993686_0" function="internal">
        <lane id=":1020993686_0_0" index="0" speed="11.11" length="3.62" shape="1159.47,897.79,516.73 1161.02,897.48,516.73 1162.11,897.21,516.73 1162.72,896.96,516.73 1162.86,896.75,516.73"/>
    </edge>
    <edge id=":1020993686_1" function="internal">
        <lane id=":1020993686_1_0" index="0" speed="13.89" length="6.37" shape="1159.47,897.79,516.73 1165.72,896.60,516.73"/>
    </edge>
    <edge id=":1021042337_0" function="internal">
        <lane id=":1021042337_0_0" index="0" speed="13.89" length="4.82" shape="297.14,1012.03,526.06 295.72,1011.59,526.06 295.08,1010.92,526.06 295.24,1010.01,526.06 296.19,1008.87,526.06"/>
    </edge>
    <edge id=":1021042340_0" function="internal">
        <lane id=":1021042340_0_0" index="0" allow="bicycle" speed="5.56" length="0.10" shape="997.53,974.13,511.36 997.53,974.13,511.36"/>
    </edge>
    <edge id=":1029996263_0" function="internal">
        <lane id=":1029996263_0_0" index="0" allow="bicycle" speed="5.56" length="1.35" shape="1001.41,1010.70,512.72 1000.77,1009.52,512.72"/>
    </edge>
    <edge id=":1029996263_1" function="internal">
        <lane id=":1029996263_1_0" index="0" allow="bicycle" speed="5.56" length="2.41" shape="1001.41,1010.70,512.72 1001.34,1009.21,512.72 1001.76,1008.39,512.72"/>
    </edge>
    <edge id=":1029996263_4" function="internal">
        <lane id=":1029996263_4_0" index="0" speed="5.56" length="2.41" shape="1001.76,1008.39,512.72 1002.67,1008.24,512.72 1004.07,1008.74,512.72"/>
    </edge>
    <edge id=":1029996263_2" function="internal">
        <lane id=":1029996263_2_0" index="0" allow="bicycle" speed="5.56" length="0.44" shape="1003.86,1008.36,512.72 1004.07,1008.74,512.72"/>
    </edge>
    <edge id=":1029996263_3" function="internal">
        <lane id=":1029996263_3_0" index="0" allow="bicycle" speed="5.56" length="0.10" shape="1003.86,1008.36,512.72 1003.83,1008.46,512.72"/>
    </edge>
    <edge id=":1029996263_5" function="internal">
        <lane id=":1029996263_5_0" index="0" speed="5.56" length="4.72" shape="1003.83,1008.46,512.72 1003.52,1009.81,512.72 1002.89,1010.48,512.72 1001.97,1010.39,512.72 1000.77,1009.52,512.72"/>
    </edge>
    <edge id=":1078847700_0" function="internal">
        <lane id=":1078847700_0_0" index="0" speed="13.89" length="2.46" shape="1060.66,952.09,513.42 1062.29,949.87,512.92"/>
        <lane id=":1078847700_0_1" index="1" speed="13.89" length="2.46" shape="1059.77,948.91,513.42 1060.62,947.02,512.92"/>
    </edge>
    <edge id=":1078847700_2" function="internal">
        <lane id=":1078847700_2_0" index="0" speed="13.89" length="1.37" shape="1058.87,945.73,513.42 1058.30,946.96,513.21"/>
    </edge>
    <edge id=":1078847704_0" function="internal">
        <lane id=":1078847704_0_0" index="0" speed="9.72" length="9.91" shape="1054.75,951.57,512.99 1053.79,948.51,512.99 1052.61,946.15,512.99 1051.22,944.49,512.99 1049.60,943.52,512.99"/>
    </edge>
    <edge id=":1078847704_1" function="internal">
        <lane id=":1078847704_1_0" index="0" allow="bicycle" speed="5.56" length="11.62" shape="1054.75,951.57,512.99 1053.97,948.45,512.99 1053.33,945.94,512.99 1052.66,943.44,512.99 1051.81,940.33,512.99"/>
    </edge>
    <edge id=":1078847704_2" function="internal">
        <lane id=":1078847704_2_0" index="0" allow="bicycle" speed="5.56" length="6.47" shape="1054.75,951.57,512.99 1054.00,949.72,512.99 1054.16,948.50,512.99 1055.25,947.89,512.99 1057.24,947.91,512.99"/>
    </edge>
    <edge id=":1078847704_3" function="internal">
        <lane id=":1078847704_3_0" index="0" allow="bicycle" speed="9.72" length="1.99" shape="1058.11,946.88,512.99 1057.58,946.72,512.99 1057.26,946.84,512.99 1057.14,947.24,512.99 1057.24,947.91,512.99"/>
    </edge>
    <edge id=":1078847704_4" function="internal">
        <lane id=":1078847704_4_0" index="0" speed="13.89" length="9.20" shape="1058.11,946.88,513.20 1049.60,943.52,512.31"/>
    </edge>
    <edge id=":1078847704_5" function="internal">
        <lane id=":1078847704_5_0" index="0" allow="bicycle" speed="9.72" length="9.38" shape="1058.11,946.88,512.99 1055.79,945.58,512.99 1053.96,944.06,512.99 1052.64,942.31,512.99 1051.81,940.33,512.99"/>
    </edge>
    <edge id=":1078847704_6" function="internal">
        <lane id=":1078847704_6_0" index="0" allow="bicycle" speed="5.56" length="8.75" shape="1054.99,939.46,512.99 1057.24,947.91,512.96"/>
    </edge>
    <edge id=":1078847704_7" function="internal">
        <lane id=":1078847704_7_0" index="0" speed="9.72" length="9.62" shape="1054.99,939.46,512.99 1055.34,942.20,512.99 1054.56,943.79,512.99 1052.64,944.23,512.99 1049.60,943.52,512.99"/>
    </edge>
    <edge id=":1078847704_8" function="internal">
        <lane id=":1078847704_8_0" index="0" allow="bicycle" speed="5.56" length="4.82" shape="1054.99,939.46,512.99 1054.53,940.87,512.99 1053.84,941.49,512.99 1052.94,941.31,512.99 1051.81,940.33,512.99"/>
    </edge>
    <edge id=":1079077661_0" function="internal">
        <lane id=":1079077661_0_0" index="0" allow="bicycle" speed="5.56" length="0.10" shape="1013.90,923.62,512.35 1013.94,923.61,512.35"/>
    </edge>
    <edge id=":1079077661_1" function="internal">
        <lane id=":1079077661_1_0" index="0" allow="bicycle" speed="5.56" length="2.41" shape="1013.90,923.62,512.35 1012.52,923.06,512.35 1011.95,922.34,512.35"/>
    </edge>
    <edge id=":1079077661_4" function="internal">
        <lane id=":1079077661_4_0" index="0" speed="5.56" length="2.41" shape="1011.95,922.34,512.35 1012.18,921.45,512.35 1013.22,920.39,512.35"/>
    </edge>
    <edge id=":1079077661_2" function="internal">
        <lane id=":1079077661_2_0" index="0" allow="bicycle" speed="5.56" length="0.10" shape="1013.20,920.39,512.35 1013.22,920.39,512.35"/>
    </edge>
    <edge id=":1079077661_3" function="internal">
        <lane id=":1079077661_3_0" index="0" allow="bicycle" speed="5.56" length="2.41" shape="1013.20,920.39,512.35 1014.59,920.92,512.35 1015.18,921.63,512.35"/>
    </edge>
    <edge id=":1079077661_5" function="internal">
        <lane id=":1079077661_5_0" index="0" speed="5.56" length="2.41" shape="1015.18,921.63,512.35 1014.96,922.52,512.35 1013.94,923.61,512.35"/>
    </edge>
    <edge id=":1079077674_0" function="internal">
        <lane id=":1079077674_0_0" index="0" allow="bicycle" speed="5.56" length="0.10" shape="1008.48,924.91,512.26 1008.38,924.93,512.26"/>
    </edge>
    <edge id=":1079077674_1" function="internal">
        <lane id=":1079077674_1_0" index="0" allow="bicycle" speed="5.56" length="2.41" shape="1008.48,924.91,512.26 1007.08,924.40,512.26 1006.49,923.69,512.26"/>
    </edge>
    <edge id=":1079077674_4" function="internal">
        <lane id=":1079077674_4_0" index="0" speed="5.56" length="2.41" shape="1006.49,923.69,512.26 1006.70,922.79,512.26 1007.71,921.70,512.26"/>
    </edge>
    <edge id=":1079077674_2" function="internal">
        <lane id=":1079077674_2_0" index="0" allow="bicycle" speed="5.56" length="0.10" shape="1007.81,921.68,512.26 1007.71,921.70,512.26"/>
    </edge>
    <edge id=":1079077674_3" function="internal">
        <lane id=":1079077674_3_0" index="0" allow="bicycle" speed="5.56" length="2.41" shape="1007.81,921.68,512.26 1009.17,922.28,512.26 1009.72,923.02,512.26"/>
    </edge>
    <edge id=":1079077674_5" function="internal">
        <lane id=":1079077674_5_0" index="0" speed="5.56" length="2.41" shape="1009.72,923.02,512.26 1009.46,923.91,512.26 1008.38,924.93,512.26"/>
    </edge>
    <edge id=":1138206168_0" function="internal">
        <lane id=":1138206168_0_0" index="0" allow="pedestrian" speed="2.78" length="6.18" shape="417.12,1025.15,519.18 415.46,1019.20,519.18"/>
    </edge>
    <edge id=":1138206168_1" function="internal">
        <lane id=":1138206168_1_0" index="0" allow="pedestrian" speed="2.78" length="5.02" shape="417.12,1025.15,519.18 416.95,1023.78,519.18 417.26,1022.69,519.18 418.06,1021.89,519.18 419.33,1021.37,519.18"/>
    </edge>
    <edge id=":1156432469_0" function="internal">
        <lane id=":1156432469_0_0" index="0" allow="bicycle" speed="5.56" length="6.23" shape="545.43,813.86,522.48 543.78,807.85,522.48"/>
    </edge>
    <edge id=":1288250860_0" function="internal">
        <lane id=":1288250860_0_0" index="0" allow="bicycle" speed="5.56" length="0.33" shape="988.51,976.84,511.67 988.41,976.53,511.67"/>
    </edge>
    <edge id=":1288250860_1" function="internal">
        <lane id=":1288250860_1_0" index="0" allow="bicycle" speed="5.56" length="0.19" shape="988.51,976.84,511.67 988.55,976.66,511.67"/>
    </edge>
    <edge id=":1288250860_4" function="internal">
        <lane id=":1288250860_4_0" index="0" speed="5.56" length="4.63" shape="988.55,976.66,511.67 988.85,975.40,511.67 989.48,974.72,511.67 990.39,974.82,511.67 991.60,975.68,511.67"/>
    </edge>
    <edge id=":1288250860_2" function="internal">
        <lane id=":1288250860_2_0" index="0" allow="bicycle" speed="5.56" length="0.11" shape="991.57,975.58,511.67 991.60,975.68,511.67"/>
    </edge>
    <edge id=":1288250860_3" function="internal">
        <lane id=":1288250860_3_0" index="0" allow="bicycle" speed="5.56" length="0.17" shape="991.57,975.58,511.67 991.52,975.75,511.67"/>
    </edge>
    <edge id=":1288250860_5" function="internal">
        <lane id=":1288250860_5_0" index="0" speed="5.56" length="4.65" shape="991.52,975.75,511.67 991.13,977.01,511.67 990.46,977.64,511.67 989.55,977.48,511.67 988.41,976.53,511.67"/>
    </edge>
    <edge id=":1288273864_0" function="internal">
        <lane id=":1288273864_0_0" index="0" allow="pedestrian" speed="2.78" length="5.00" shape="723.21,704.77,522.30 724.47,704.24,522.30 725.26,703.44,522.30 725.58,702.35,522.30 725.43,700.99,522.30"/>
    </edge>
    <edge id=":1288273864_1" function="internal">
        <lane id=":1288273864_1_0" index="0" allow="pedestrian" speed="2.78" length="4.83" shape="723.21,704.77,522.30 724.56,704.60,522.30 725.64,704.88,522.30 726.43,705.61,522.30 726.94,706.78,522.30"/>
    </edge>
    <edge id=":1294654893_0" function="internal">
        <lane id=":1294654893_0_0" index="0" allow="pedestrian" speed="2.08" length="1.11" shape="985.36,971.19,511.66 985.50,971.66,511.66 985.60,971.99,511.66 985.65,972.19,511.66 985.67,972.26,511.66"/>
    </edge>
    <edge id=":1294654902_0" function="internal">
        <lane id=":1294654902_0_0" index="0" allow="pedestrian" speed="2.78" length="3.34" shape="985.52,972.38,511.79 984.68,973.10,511.79 984.14,973.80,511.79 983.90,974.47,511.79 983.97,975.11,511.79"/>
    </edge>
    <edge id=":1294654902_1" function="internal">
        <lane id=":1294654902_1_0" index="0" allow="pedestrian" speed="2.78" length="5.08" shape="982.41,970.27,511.79 983.97,975.11,511.90"/>
    </edge>
    <edge id=":1294654915_0" function="internal">
        <lane id=":1294654915_0_0" index="0" allow="bicycle" speed="5.56" length="3.12" shape="985.35,966.36,511.52 984.45,963.38,511.52"/>
    </edge>
    <edge id=":1294654915_1" function="internal">
        <lane id=":1294654915_1_0" index="0" allow="bicycle" speed="5.56" length="4.82" shape="985.35,966.36,511.52 985.78,964.94,511.52 986.45,964.31,511.52 987.36,964.46,511.52 988.51,965.41,511.52"/>
    </edge>
    <edge id=":1294654915_2" function="internal">
        <lane id=":1294654915_2_0" index="0" allow="bicycle" speed="5.56" length="3.00" shape="987.64,962.54,511.52 988.51,965.41,511.52"/>
    </edge>
    <edge id=":1294654915_3" function="internal">
        <lane id=":1294654915_3_0" index="0" allow="bicycle" speed="5.56" length="4.82" shape="987.64,962.54,511.52 987.16,963.95,511.52 986.46,964.55,511.52 985.56,964.36,511.52 984.45,963.38,511.52"/>
    </edge>
    <edge id=":1294654926_0" function="internal">
        <lane id=":1294654926_0_0" index="0" allow="pedestrian" speed="2.08" length="2.52" shape="985.05,964.85,511.59 984.44,965.13,511.59 984.07,965.54,511.59 983.95,966.11,511.59 984.06,966.82,511.59"/>
    </edge>
    <edge id=":1387410895_0" function="internal">
        <lane id=":1387410895_0_0" index="0" allow="delivery" speed="9.72" length="4.38" shape="554.75,822.64,521.61 554.17,821.42,521.61 553.43,820.65,521.61 552.56,820.34,521.61 551.53,820.47,521.61"/>
    </edge>
    <edge id=":1387410895_1" function="internal">
        <lane id=":1387410895_1_0" index="0" speed="13.89" length="9.33" shape="554.75,822.64,521.61 551.84,813.68,521.61"/>
        <lane id=":1387410895_1_1" index="1" speed="13.89" length="9.33" shape="557.86,821.54,521.61 555.01,812.75,521.61"/>
    </edge>
    <edge id=":1387410895_3" function="internal">
        <lane id=":1387410895_3_0" index="0" speed="9.72" length="4.38" shape="550.51,817.33,521.61 551.42,816.83,521.61 551.94,816.06,521.61 552.09,815.01,521.61 551.84,813.68,521.61"/>
    </edge>
    <edge id=":1387410895_4" function="internal">
        <lane id=":1387410895_4_0" index="0" allow="delivery" speed="5.56" length="4.82" shape="550.51,817.33,521.61 551.94,817.73,521.61 552.59,818.39,521.61 552.45,819.30,521.61 551.53,820.47,521.61"/>
    </edge>
    <edge id=":1387410903_0" function="internal">
        <lane id=":1387410903_0_0" index="0" allow="delivery" speed="5.56" length="4.82" shape="525.03,828.75,522.64 523.60,828.32,522.64 522.97,827.65,522.64 523.12,826.74,522.64 524.07,825.60,522.64"/>
    </edge>
    <edge id=":1446830339_0" function="internal">
        <lane id=":1446830339_0_0" index="0" allow="delivery" speed="5.56" length="0.10" shape="539.70,824.30,522.08 539.68,824.31,522.08"/>
    </edge>
    <edge id=":1446830339_1" function="internal">
        <lane id=":1446830339_1_0" index="0" allow="delivery" speed="5.56" length="2.41" shape="539.70,824.30,522.08 538.27,823.90,522.08 537.62,823.24,522.08"/>
    </edge>
    <edge id=":1446830339_4" function="internal">
        <lane id=":1446830339_4_0" index="0" speed="5.56" length="2.41" shape="537.62,823.24,522.08 537.76,822.33,522.08 538.68,821.16,522.08"/>
    </edge>
    <edge id=":1446830339_2" function="internal">
        <lane id=":1446830339_2_0" index="0" allow="delivery" speed="5.56" length="0.10" shape="538.72,821.15,522.08 538.68,821.16,522.08"/>
    </edge>
    <edge id=":1446830339_3" function="internal">
        <lane id=":1446830339_3_0" index="0" allow="delivery" speed="5.56" length="2.41" shape="538.72,821.15,522.08 540.14,821.58,522.08 540.78,822.25,522.08"/>
    </edge>
    <edge id=":1446830339_5" function="internal">
        <lane id=":1446830339_5_0" index="0" speed="5.56" length="2.41" shape="540.78,822.25,522.08 540.62,823.16,522.08 539.68,824.31,522.08"/>
    </edge>
    <edge id=":1500647770_0" function="internal">
        <lane id=":1500647770_0_0" index="0" allow="delivery" speed="5.56" length="0.10" shape="985.67,835.33,513.70 985.68,835.33,513.70"/>
    </edge>
    <edge id=":1500647770_1" function="internal">
        <lane id=":1500647770_1_0" index="0" allow="delivery" speed="5.56" length="2.41" shape="985.67,835.33,513.70 984.25,834.87,513.70 983.63,834.19,513.70"/>
    </edge>
    <edge id=":1500647770_4" function="internal">
        <lane id=":1500647770_4_0" index="0" speed="5.56" length="2.41" shape="983.63,834.19,513.70 983.80,833.29,513.70 984.76,832.16,513.70"/>
    </edge>
    <edge id=":1500647770_2" function="internal">
        <lane id=":1500647770_2_0" index="0" allow="delivery" speed="5.56" length="0.10" shape="984.76,832.16,513.70 984.76,832.16,513.70"/>
    </edge>
    <edge id=":1500647770_3" function="internal">
        <lane id=":1500647770_3_0" index="0" allow="delivery" speed="5.56" length="2.41" shape="984.76,832.16,513.70 986.18,832.60,513.70 986.80,833.28,513.70"/>
    </edge>
    <edge id=":1500647770_5" function="internal">
        <lane id=":1500647770_5_0" index="0" speed="5.56" length="2.41" shape="986.80,833.28,513.70 986.64,834.19,513.70 985.68,835.33,513.70"/>
    </edge>
    <edge id=":1546080518_0" function="internal">
        <lane id=":1546080518_0_0" index="0" speed="9.72" length="6.83" shape="471.63,1030.08,520.36 471.81,1028.26,520.36 472.49,1026.83,520.36 473.69,1025.79,520.36 475.39,1025.13,520.36"/>
    </edge>
    <edge id=":1546080518_1" function="internal">
        <lane id=":1546080518_1_0" index="0" allow="delivery" speed="5.56" length="4.82" shape="471.63,1030.08,520.36 472.41,1028.81,520.36 473.21,1028.37,520.36 474.05,1028.75,520.36 474.92,1029.96,520.36"/>
    </edge>
    <edge id=":1546080518_2" function="internal">
        <lane id=":1546080518_2_0" index="0" allow="delivery" speed="9.72" length="2.23" shape="476.15,1028.34,520.36 475.60,1028.56,520.36 475.21,1028.90,520.36 474.98,1029.37,520.36 474.92,1029.96,520.36"/>
    </edge>
    <edge id=":1546080518_3" function="internal">
        <lane id=":1546080518_3_0" index="0" speed="13.89" length="4.82" shape="476.15,1028.34,520.36 474.76,1027.83,520.36 474.17,1027.12,520.36 474.38,1026.22,520.36 475.39,1025.13,520.36"/>
    </edge>
    <edge id=":1558550831_0" function="internal">
        <lane id=":1558550831_0_0" index="0" allow="delivery" speed="5.56" length="0.10" shape="653.38,974.13,518.76 653.38,974.13,518.76"/>
    </edge>
    <edge id=":1558550831_1" function="internal">
        <lane id=":1558550831_1_0" index="0" allow="delivery" speed="5.56" length="2.41" shape="653.38,974.13,518.76 653.87,972.72,518.76 654.57,972.12,518.76"/>
    </edge>
    <edge id=":1558550831_4" function="internal">
        <lane id=":1558550831_4_0" index="0" speed="5.56" length="2.41" shape="654.57,972.12,518.76 655.47,972.31,518.76 656.58,973.31,518.76"/>
    </edge>
    <edge id=":1558550831_2" function="internal">
        <lane id=":1558550831_2_0" index="0" allow="delivery" speed="5.56" length="0.10" shape="656.59,973.35,518.76 656.58,973.31,518.76"/>
    </edge>
    <edge id=":1558550831_3" function="internal">
        <lane id=":1558550831_3_0" index="0" allow="delivery" speed="5.56" length="2.41" shape="656.59,973.35,518.76 656.08,974.74,518.76 655.37,975.34,518.76"/>
    </edge>
    <edge id=":1558550831_5" function="internal">
        <lane id=":1558550831_5_0" index="0" speed="5.56" length="2.41" shape="655.37,975.34,518.76 654.47,975.13,518.76 653.38,974.13,518.76"/>
    </edge>
    <edge id=":1558550833_0" function="internal">
        <lane id=":1558550833_0_0" index="0" allow="delivery" speed="5.56" length="5.09" shape="659.97,989.89,518.66 658.75,989.38,518.66 657.78,988.63,518.66 657.05,987.64,518.66 656.58,986.41,518.66"/>
    </edge>
    <edge id=":1558550833_1" function="internal">
        <lane id=":1558550833_1_0" index="0" allow="delivery" speed="5.56" length="2.84" shape="659.97,989.89,518.66 659.01,988.75,518.66 658.84,987.84,518.66 659.13,987.53,518.66"/>
    </edge>
    <edge id=":1558550833_4" function="internal">
        <lane id=":1558550833_4_0" index="0" speed="5.56" length="1.98" shape="659.13,987.53,518.66 659.46,987.17,518.66 660.88,986.71,518.66"/>
    </edge>
    <edge id=":1558550833_2" function="internal">
        <lane id=":1558550833_2_0" index="0" allow="delivery" speed="5.56" length="1.66" shape="659.77,985.58,518.66 659.93,985.98,518.66 660.16,986.30,518.66 660.48,986.55,518.66 660.88,986.71,518.66"/>
    </edge>
    <edge id=":1558550833_3" function="internal">
        <lane id=":1558550833_3_0" index="0" allow="delivery" speed="5.56" length="2.08" shape="659.77,985.58,518.66 659.28,986.98,518.66 658.84,987.37,518.66"/>
    </edge>
    <edge id=":1558550833_5" function="internal">
        <lane id=":1558550833_5_0" index="0" speed="5.56" length="2.74" shape="658.84,987.37,518.66 658.59,987.59,518.66 657.69,987.40,518.66 656.58,986.41,518.66"/>
    </edge>
    <edge id=":1558550835_0" function="internal">
        <lane id=":1558550835_0_0" index="0" allow="delivery" speed="5.56" length="0.10" shape="696.53,992.19,518.68 696.44,992.22,518.68"/>
    </edge>
    <edge id=":1558550835_1" function="internal">
        <lane id=":1558550835_1_0" index="0" allow="delivery" speed="5.56" length="2.41" shape="696.53,992.19,518.68 695.12,991.72,518.68 694.51,991.03,518.68"/>
    </edge>
    <edge id=":1558550835_4" function="internal">
        <lane id=":1558550835_4_0" index="0" speed="5.56" length="2.41" shape="694.51,991.03,518.68 694.69,990.12,518.68 695.66,989.00,518.68"/>
    </edge>
    <edge id=":1558550835_2" function="internal">
        <lane id=":1558550835_2_0" index="0" allow="delivery" speed="5.56" length="0.31" shape="695.37,989.09,518.68 695.66,989.00,518.68"/>
    </edge>
    <edge id=":1558550835_3" function="internal">
        <lane id=":1558550835_3_0" index="0" allow="delivery" speed="5.56" length="2.41" shape="695.37,989.09,518.68 696.81,989.47,518.68 697.46,990.12,518.68"/>
    </edge>
    <edge id=":1558550835_5" function="internal">
        <lane id=":1558550835_5_0" index="0" speed="5.56" length="2.41" shape="697.46,990.12,518.68 697.34,991.03,518.68 696.44,992.22,518.68"/>
    </edge>
    <edge id=":1558550838_0" function="internal">
        <lane id=":1558550838_0_0" index="0" allow="delivery" speed="5.56" length="2.94" shape="684.97,996.14,518.68 682.04,996.21,518.68"/>
    </edge>
    <edge id=":1558550838_1" function="internal">
        <lane id=":1558550838_1_0" index="0" allow="delivery" speed="5.56" length="2.41" shape="684.97,996.14,518.68 683.54,995.76,518.68 682.88,995.11,518.68"/>
    </edge>
    <edge id=":1558550838_4" function="internal">
        <lane id=":1558550838_4_0" index="0" speed="5.56" length="2.41" shape="682.88,995.11,518.68 683.00,994.20,518.68 683.91,993.02,518.68"/>
    </edge>
    <edge id=":1558550838_2" function="internal">
        <lane id=":1558550838_2_0" index="0" allow="delivery" speed="5.56" length="0.96" shape="682.95,993.04,518.68 683.91,993.02,518.68"/>
    </edge>
    <edge id=":1558550838_3" function="internal">
        <lane id=":1558550838_3_0" index="0" allow="delivery" speed="5.56" length="1.88" shape="682.95,993.04,518.68 683.91,994.17,518.68 683.98,994.56,518.68"/>
    </edge>
    <edge id=":1558550838_5" function="internal">
        <lane id=":1558550838_5_0" index="0" speed="5.56" length="2.94" shape="683.98,994.56,518.68 684.08,995.08,518.68 683.45,995.76,518.68 682.04,996.21,518.68"/>
    </edge>
    <edge id=":1582278230_0" function="internal">
        <lane id=":1582278230_0_0" index="0" speed="13.89" length="0.34" shape="988.91,815.51,514.37 988.88,815.35,514.37"/>
        <lane id=":1582278230_0_1" index="1" speed="13.89" length="0.34" shape="992.17,815.02,514.37 992.07,814.52,514.37"/>
    </edge>
    <edge id=":1582278237_0" function="internal">
        <lane id=":1582278237_0_0" index="0" speed="13.89" length="7.09" shape="964.65,969.74,513.72 965.20,961.65,513.72"/>
        <lane id=":1582278237_0_1" index="1" speed="13.89" length="7.09" shape="964.65,969.74,513.72 967.24,964.24,513.72"/>
    </edge>
    <edge id=":1582278237_2" function="internal">
        <lane id=":1582278237_2_0" index="0" speed="13.89" length="5.04" shape="964.65,969.74,513.72 969.04,967.35,513.72"/>
        <lane id=":1582278237_2_1" index="1" speed="13.89" length="5.04" shape="965.79,972.84,513.72 970.27,970.42,513.72"/>
    </edge>
    <edge id=":1582278242_0" function="internal">
        <lane id=":1582278242_0_0" index="0" speed="13.89" length="3.00" shape="790.34,1041.26,518.87 787.46,1042.09,518.87"/>
        <lane id=":1582278242_0_1" index="1" speed="13.89" length="3.00" shape="789.43,1038.09,518.87 786.55,1038.92,518.87"/>
    </edge>
    <edge id=":1582278242_2" function="internal">
        <lane id=":1582278242_2_0" index="0" speed="13.89" length="3.00" shape="790.31,1041.16,518.87 787.46,1042.09,518.87"/>
        <lane id=":1582278242_2_1" index="1" speed="13.89" length="3.00" shape="789.40,1037.98,518.87 786.55,1038.92,518.87"/>
    </edge>
    <edge id=":1584061695_0" function="internal">
        <lane id=":1584061695_0_0" index="0" allow="rail_urban" speed="27.78" length="0.10" shape="449.55,492.15,523.27 449.56,492.18,523.27"/>
    </edge>
    <edge id=":1584061695_1" function="internal">
        <lane id=":1584061695_1_0" index="0" allow="pedestrian" speed="18.06" length="2.41" shape="449.55,492.15,523.27 449.75,491.44,523.27 450.09,491.12,523.27 450.54,491.19,523.27 451.12,491.65,523.27"/>
    </edge>
    <edge id=":1584061695_2" function="internal">
        <lane id=":1584061695_2_0" index="0" allow="pedestrian" speed="8.33" length="0.10" shape="451.14,491.71,523.27 451.12,491.65,523.27"/>
    </edge>
    <edge id=":1584061695_3" function="internal">
        <lane id=":1584061695_3_0" index="0" allow="rail_urban" speed="18.06" length="2.41" shape="451.14,491.71,523.27 450.92,492.42,523.27 450.58,492.74,523.27 450.13,492.66,523.27 449.56,492.18,523.27"/>
    </edge>
    <edge id=":1593445207_0" function="internal">
        <lane id=":1593445207_0_0" index="0" speed="13.89" length="0.10" shape="1114.45,935.38,516.67 1114.42,935.39,516.67"/>
        <lane id=":1593445207_0_1" index="1" speed="13.89" length="0.10" shape="1113.42,932.25,516.67 1113.42,932.25,516.67"/>
        <lane id=":1593445207_0_2" index="2" speed="13.89" length="0.10" shape="1112.50,929.08,516.67 1112.49,929.08,516.67"/>
    </edge>
    <edge id=":1628639238_0" function="internal">
        <lane id=":1628639238_0_0" index="0" speed="9.72" length="5.14" shape="925.30,1015.36,515.55 924.73,1014.02,515.55 923.91,1013.18,515.55 922.81,1012.81,515.55 921.46,1012.94,515.55"/>
    </edge>
    <edge id=":1628639238_1" function="internal">
        <lane id=":1628639238_1_0" index="0" allow="delivery" speed="5.56" length="5.04" shape="925.30,1015.36,515.55 925.33,1013.80,515.55 925.83,1012.98,515.55 926.79,1012.88,515.55 928.21,1013.51,515.55"/>
    </edge>
    <edge id=":1628639238_2" function="internal">
        <lane id=":1628639238_2_0" index="0" allow="delivery" speed="9.72" length="4.22" shape="930.89,1010.98,515.55 929.51,1011.34,515.55 928.61,1011.89,515.55 928.17,1012.61,515.55 928.21,1013.51,515.55"/>
    </edge>
    <edge id=":1628639238_3" function="internal">
        <lane id=":1628639238_3_0" index="0" speed="13.89" length="9.63" shape="930.89,1010.98,515.55 921.46,1012.94,515.55"/>
    </edge>
    <edge id=":1636728596_0" function="internal">
        <lane id=":1636728596_0_0" index="0" allow="pedestrian" speed="2.78" length="6.20" shape="788.38,773.19,520.05 790.14,779.14,520.05"/>
    </edge>
    <edge id=":1636728596_1" function="internal">
        <lane id=":1636728596_1_0" index="0" allow="pedestrian" speed="2.78" length="5.06" shape="786.21,777.00,520.05 787.60,776.84,520.05 788.73,777.15,520.05 789.57,777.91,520.05 790.14,779.14,520.05"/>
    </edge>
    <edge id=":1636728628_0" function="internal">
        <lane id=":1636728628_0_0" index="0" allow="pedestrian" speed="2.78" length="4.76" shape="764.53,779.93,521.01 765.34,780.85,521.01 766.31,781.40,521.01 767.43,781.60,521.01 768.70,781.43,521.01"/>
    </edge>
    <edge id=":1636728628_1" function="internal">
        <lane id=":1636728628_1_0" index="0" allow="pedestrian" speed="2.78" length="5.22" shape="764.53,779.93,521.01 766.10,784.91,521.01"/>
    </edge>
    <edge id=":1636728664_0" function="internal">
        <lane id=":1636728664_0_0" index="0" allow="pedestrian" speed="2.78" length="5.02" shape="753.53,788.76,521.40 751.94,784.00,521.42"/>
    </edge>
    <edge id=":1636728664_1" function="internal">
        <lane id=":1636728664_1_0" index="0" allow="pedestrian" speed="2.78" length="4.76" shape="749.43,787.55,521.42 750.60,787.05,521.42 751.40,786.29,521.42 751.85,785.27,521.42 751.94,784.00,521.42"/>
    </edge>
    <edge id=":1636728684_0" function="internal">
        <lane id=":1636728684_0_0" index="0" allow="pedestrian" speed="2.78" length="3.76" shape="756.69,791.13,521.25 753.65,788.93,521.42"/>
    </edge>
    <edge id=":1636728684_1" function="internal">
        <lane id=":1636728684_1_0" index="0" allow="pedestrian" speed="2.78" length="3.41" shape="752.42,791.94,521.25 753.17,790.92,521.25 753.63,790.08,521.25 753.79,789.41,521.25 753.65,788.93,521.25"/>
    </edge>
    <edge id=":1636728692_0" function="internal">
        <lane id=":1636728692_0_0" index="0" allow="pedestrian" speed="2.78" length="4.69" shape="763.33,789.87,520.98 762.36,790.64,520.98 761.77,791.57,520.98 761.56,792.65,520.98 761.72,793.89,520.98"/>
    </edge>
    <edge id=":1636728692_1" function="internal">
        <lane id=":1636728692_1_0" index="0" allow="pedestrian" speed="2.78" length="5.22" shape="763.33,789.87,520.98 758.30,791.25,520.98"/>
    </edge>
    <edge id=":1636728756_0" function="internal">
        <lane id=":1636728756_0_0" index="0" allow="pedestrian" speed="2.78" length="4.73" shape="676.67,796.80,519.34 677.17,797.96,519.34 677.93,798.77,519.34 678.93,799.23,519.34 680.19,799.34,519.34"/>
    </edge>