<?xml version="1.0" encoding="UTF-8"?>

<configuration xmlns:xsi="http://www.w3.org/2001/XMLSchema-instance" xsi:noNamespaceSchemaLocation="http://sumo.dlr.de/xsd/sumoConfiguration.xsd">

    <input>
        <net-file value="Munich.net.xml"/>
        <route-files value="cars.rou.xml,peds.rou.xml"/>
    </input>

	<additional-files>
	<additional-files value="ped.add.xml,Munich.poly.xml"/>
	</additional-files>
    
    
    <time>
        <begin value="0.1"/>
        <end value="1000"/>
        <step-length value="0.1"/>
    </time>

    <output>
    <fcd-output value="SUMO_output.output.xml"/>
    <fcd-output.geo value="true"/>
</output>

</configuration>