<?xml version="1.0" encoding="UTF-8"?>

<!-- generated on Wed Apr 29 15:06:01 2015 by SUMO polyconvert Version svn
<?xml version="1.0" encoding="UTF-8"?>

<configuration xmlns:xsi="http://www.w3.org/2001/XMLSchema-instance" xsi:noNamespaceSchemaLocation="http://sumo.dlr.de/xsd/polyconvertConfiguration.xsd">

    <input>
        <net-file value="Munich.net.xml"/>
        <osm-files value="Munich.osm"/>
        <type-file value="typemap.xml"/>
    </input>

    <output>
        <output-file value="Munich.poly.xml"/>
    </output>

</configuration>
-->

<additional xmlns:xsi="http://www.w3.org/2001/XMLSchema-instance" xsi:noNamespaceSchemaLocation="http://sumo.sourceforge.net/xsd/additional_file.xsd">
    <location netOffset="-691190.47,-5334584.42" convBoundary="-401.48,-550.80,2386.81,3562.32" origBoundary="11.564519,48.130800,11.603063,48.167408" projParameter="+proj=utm +zone=32 +ellps=WGS84 +datum=WGS84 +units=m +no_defs"/>
    <poly id="100024916" type="unknown" color="51,128,255" fill="0" layer="-1.00" shape="541.10,811.73 544.65,810.91"/>
    <poly id="100024919" type="unknown" color="51,128,255" fill="0" layer="-1.00" shape="601.64,925.29 598.65,925.42"/>
    <poly id="10070529" type="unknown" color="51,128,255" fill="0" layer="-1.00" shape="900.68,555.62 926.68,637.69"/>
    <poly id="10071036" type="unknown" color="51,128,255" fill="1" layer="-1.00" shape="796.81,546.62 780.80,479.96 818.27,465.72 821.69,464.44 830.18,480.76 831.63,483.16 833.12,485.86 828.32,488.30 847.07,524.85 869.00,567.61 870.22,572.14 886.55,602.62 848.18,622.50 828.82,581.68 810.79,543.25 796.81,546.62"/>
    <poly id="10204369" type="water" color="181,209,209" fill="1" layer="-10.00" shape="1012.24,938.77 1008.38,938.73 1002.04,941.27 998.07,946.42 997.13,950.34 997.88,955.70 1001.92,961.23 1007.41,963.73 1010.25,963.94 1013.59,963.37 1017.50,961.34 1021.35,956.51 1022.46,950.73 1020.89,945.19 1017.51,941.27 1014.09,939.41 1012.24,938.77"/>
    <poly id="10204370" type="water" color="181,209,209" fill="0" layer="-10.00" shape="827.76,657.36 911.91,630.47 917.00,634.08"/>
    <poly id="10204372" type="water" color="181,209,209" fill="0" layer="-10.00" shape="1013.59,963.37 1016.48,966.44"/>
    <poly id="10204375" type="building" color="255,230,230" fill="1" layer="2.00" shape="643.83,935.49 635.76,937.77 638.75,947.66 646.75,945.41 643.83,935.49"/>
    <poly id="10204375#1" type="historic" color="128,255,128" fill="1" layer="2.00" shape="643.83,935.49 635.76,937.77 638.75,947.66 646.75,945.41 643.83,935.49"/>
    <poly id="113619166" type="unknown" color="51,128,255" fill="0" layer="-1.00" shape="1233.91,909.29 1067.45,954.76 1058.43,957.23"/>
    <poly id="113619169" type="unknown" color="51,128,255" fill="0" layer="-1.00" shape="981.63,907.05 975.60,862.56"/>
    <poly id="114253640" type="unknown" color="51,128,255" fill="0" layer="-1.00" shape="1058.43,957.23 1056.41,951.40"/>
    <poly id="114253641" type="unknown" color="51,128,255" fill="0" layer="-1.00" shape="986.50,964.45 983.60,965.25"/>
    <poly id="114253642" type="unknown" color="51,128,255" fill="0" layer="-1.00" shape="985.01,978.09 989.36,982.69 991.09,988.17 994.02,996.73"/>
    <poly id="114253643" type="unknown" color="51,128,255" fill="0" layer="-1.00" shape="983.60,965.25 985.68,972.25"/>
    <poly id="114253644" type="unknown" color="51,128,255" fill="0" layer="-1.00" shape="985.68,972.25 983.54,973.86"/>
    <poly id="114253645" type="unknown" color="51,128,255" fill="0" layer="-1.00" shape="993.94,1001.60 939.40,1014.21"/>
    <poly id="115881080" type="building" color="255,230,230" fill="1" layer="2.00" shape="469.46,858.51 462.93,835.56 456.56,813.16 472.40,808.68 478.05,807.09 482.74,823.56 477.40,825.06 482.06,841.46 491.57,838.78 492.64,842.55 495.12,851.27 469.46,858.51"/>
    <poly id="115881081" type="building" color="255,230,230" fill="1" layer="2.00" shape="478.05,807.09 485.66,804.95 496.29,801.94 500.03,815.10 490.00,817.93 486.60,818.90 487.55,822.20 482.74,823.56 478.05,807.09"/>
    <poly id="115881084" type="building" color="255,230,230" fill="1" layer="2.00" shape="500.03,815.10 502.28,823.02 506.70,838.58 492.64,842.55 491.57,838.78 495.60,837.63 490.00,817.93 500.03,815.10"/>
    <poly id="118282031" type="unknown" color="51,128,255" fill="0" layer="-1.00" shape="767.84,1038.61 781.69,1034.82 826.67,1022.67 915.95,997.33"/>
    <poly id="118930045" type="amenity" color="237,199,199" fill="1" layer="2.00" shape="779.12,608.80 779.06,607.12 778.16,605.67 776.65,604.88 774.96,604.94 773.52,605.84 772.72,607.34 772.78,609.03 773.69,610.46 775.19,611.26 776.89,611.21 778.33,610.30 779.12,608.80"/>
    <poly id="118930045#1" type="landuse" color="194,194,130" fill="1" layer="-4.00" shape="779.12,608.80 779.06,607.12 778.16,605.67 776.65,604.88 774.96,604.94 773.52,605.84 772.72,607.34 772.78,609.03 773.69,610.46 775.19,611.26 776.89,611.21 778.33,610.30 779.12,608.80"/>
    <poly id="120199713" type="unknown" color="51,128,255" fill="0" layer="-1.00" shape="567.81,856.99 558.08,860.49 554.81,861.45 532.80,867.93 530.26,872.29 536.77,896.62 545.03,926.07 550.59,928.42 571.60,921.80 575.16,921.05 585.46,917.18"/>
    <poly id="124731776" type="building" color="255,230,230" fill="1" layer="2.00" shape="605.50,897.31 603.97,897.74 594.76,864.74 596.67,864.29 613.81,860.22 623.00,892.55 605.50,897.31"/>
    <poly id="124731776#1" type="historic" color="128,255,128" fill="1" layer="2.00" shape="605.50,897.31 603.97,897.74 594.76,864.74 596.67,864.29 613.81,860.22 623.00,892.55 605.50,897.31"/>
    <poly id="124731779" type="unknown" color="51,128,255" fill="0" layer="-1.00" shape="511.37,831.13 523.12,827.61"/>
    <poly id="124731780" type="unknown" color="51,128,255" fill="0" layer="-1.00" shape="539.20,822.73 523.12,827.61"/>
    <poly id="124731783" type="building" color="255,230,230" fill="1" layer="2.00" shape="508.56,821.25 502.28,823.02 506.70,838.58 509.75,848.19 511.77,847.57 544.18,839.54 539.43,824.22 539.20,822.73 538.70,821.79 536.84,815.38 520.88,819.73 523.12,827.61 524.03,830.82 512.23,834.15 511.37,831.13 508.56,821.25"/>
    <poly id="124731783#1" type="historic" color="128,255,128" fill="1" layer="2.00" shape="508.56,821.25 502.28,823.02 506.70,838.58 509.75,848.19 511.77,847.57 544.18,839.54 539.43,824.22 539.20,822.73 538.70,821.79 536.84,815.38 520.88,819.73 523.12,827.61 524.03,830.82 512.23,834.15 511.37,831.13 508.56,821.25"/>
    <poly id="124731785" type="unknown" color="51,128,255" fill="0" layer="-1.00" shape="554.75,817.69 547.11,820.17 539.20,822.73"/>
    <poly id="124735803" type="tourism" color="207,245,201" fill="1" layer="-10.00" shape="547.40,856.25 528.01,861.55 523.94,846.76 543.33,841.46 547.40,856.25"/>
    <poly id="124911339" type="unknown" color="51,128,255" fill="0" layer="-1.00" shape="880.79,858.73 865.41,806.05 853.30,764.55 837.98,712.08"/>
    <poly id="124911340" type="tourism" color="207,245,201" fill="1" layer="-10.00" shape="856.51,765.28 885.25,756.95 889.61,771.85 887.37,772.50 886.07,768.05 881.93,769.25 880.62,764.76 864.27,769.51 865.58,773.99 861.53,775.17 862.83,779.62 860.73,780.23 856.51,765.28"/>
    <poly id="124911341" type="tourism" color="207,245,201" fill="1" layer="-10.00" shape="866.09,775.73 870.37,790.41 867.65,791.19 863.36,776.52 866.09,775.73"/>
    <poly id="124911344" type="unknown" color="51,128,255" fill="0" layer="-1.00" shape="849.69,765.59 853.30,764.55 889.07,754.25"/>
    <poly id="124911345" type="unknown" color="51,128,255" fill="0" layer="-1.00" shape="890.10,697.11 909.80,764.38 913.40,776.66"/>
    <poly id="124911346" type="tourism" color="207,245,201" fill="1" layer="-10.00" shape="824.51,714.31 887.97,695.90 885.90,688.78 859.99,696.29 858.13,690.14 883.89,680.58 880.95,671.00 882.24,668.25 909.67,660.40 911.26,666.43 920.01,663.88 917.43,655.49 914.93,654.34 830.60,683.84 822.42,703.01 824.51,714.31"/>
    <poly id="124911347" type="tourism" color="207,245,201" fill="1" layer="-10.00" shape="885.03,770.24 889.31,784.91 886.72,785.66 882.43,770.99 885.03,770.24"/>
    <poly id="124911348" type="unknown" color="51,128,255" fill="0" layer="-1.00" shape="834.63,713.05 837.98,712.08 890.10,697.11"/>
    <poly id="124911349" type="tourism" color="207,245,201" fill="1" layer="-10.00" shape="867.78,803.90 896.54,795.60 892.16,780.60 889.92,781.25 891.33,786.08 887.20,787.28 888.65,792.29 872.30,797.02 870.84,792.02 866.80,793.20 865.39,788.37 863.42,788.95 867.78,803.90"/>
    <poly id="124911350" type="tourism" color="207,245,201" fill="1" layer="-10.00" shape="931.69,845.60 868.22,864.01 870.15,870.62 933.62,852.21 931.69,845.60"/>
    <poly id="124911351" type="landuse" color="194,194,130" fill="1" layer="-4.00" shape="839.70,766.31 825.48,717.62 837.11,714.24 851.15,762.99 839.70,766.31"/>
    <poly id="124911352" type="tourism" color="207,245,201" fill="1" layer="-10.00" shape="882.96,855.89 930.65,842.06 918.45,800.29 915.54,800.60 913.04,800.05 910.22,798.63 908.48,796.02 905.41,784.47 901.08,785.73 904.69,797.12 868.84,807.52 882.96,855.89"/>
    <poly id="124911353" type="building" color="255,230,230" fill="1" layer="2.00" shape="919.31,780.96 924.49,779.45 944.55,848.28 943.16,848.68 946.09,858.77 974.65,850.51 971.72,840.42 970.49,840.78 950.43,771.94 951.66,771.58 943.07,742.11 941.84,742.47 923.45,679.35 924.68,678.99 921.59,668.38 893.02,676.64 896.12,687.26 897.51,686.85 915.90,749.98 910.72,751.48 919.31,780.96"/>
    <poly id="124911354" type="landuse" color="194,194,130" fill="1" layer="-4.00" shape="852.02,808.51 840.73,769.86 850.48,767.03 862.20,805.56 852.02,808.51"/>
    <poly id="124911355" type="unknown" color="51,128,255" fill="0" layer="-1.00" shape="900.48,795.60 865.41,806.05"/>
    <poly id="124911356" type="tourism" color="207,245,201" fill="1" layer="-10.00" shape="855.47,761.73 841.25,713.05 888.94,699.20 901.41,741.90 898.78,742.82 896.85,744.61 895.59,746.56 895.25,750.20 898.81,761.87 894.25,763.19 891.01,751.43 855.47,761.73"/>
    <poly id="124911357" type="unknown" color="51,128,255" fill="0" layer="-1.00" shape="889.07,754.25 893.07,769.05 891.62,772.53 891.67,776.23 893.45,779.46 896.36,781.25 900.48,795.60"/>
    <poly id="124912042" type="tourism" color="207,245,201" fill="1" layer="-10.00" shape="995.00,855.17 1001.55,859.51 1003.43,861.80 1005.03,864.02 1026.21,949.06 1025.51,954.59 1023.94,958.44 1021.04,963.44 1017.71,966.57 1010.01,969.83 990.72,974.54 979.07,977.42 968.09,942.68 939.02,950.95 937.11,941.55 948.87,939.31 948.79,936.96 939.80,936.03 933.32,934.66 936.08,928.66 938.48,926.61 942.35,924.16 946.81,922.32 955.52,920.55 960.06,920.17 965.06,919.94 968.82,921.06 969.83,922.63 970.86,925.70 979.92,923.63 980.57,916.08 984.73,911.04 985.14,905.08 985.37,898.12 984.23,890.32 981.65,880.02 981.07,871.50 981.39,862.14 982.13,857.80 992.20,855.35 995.00,855.17"/>
    <poly id="124912047" type="tourism" color="207,245,201" fill="1" layer="-10.00" shape="872.20,878.31 886.96,874.41 888.13,878.80 914.98,871.70 913.81,867.31 946.09,858.77 974.65,850.51 975.15,853.71 973.59,856.31 971.90,859.04 968.63,861.32 964.68,862.12 952.00,864.88 878.23,886.31 873.90,884.11 872.20,878.31"/>
    <poly id="124912051" type="tourism" color="207,245,201" fill="1" layer="-10.00" shape="929.23,933.22 909.25,923.02 884.65,903.27 880.76,898.92 880.59,895.59 881.48,893.24 883.40,891.45 888.06,889.41 960.38,869.20 966.21,868.00 969.78,868.72 972.77,870.75 974.47,873.80 975.97,880.68 979.32,902.03 977.89,906.63 975.98,910.16 973.29,912.85 970.83,914.56 966.87,915.76 962.87,916.02 955.00,916.21 949.78,917.04 944.20,918.78 938.44,921.83 934.00,925.21 931.20,929.16 929.23,933.22"/>
    <poly id="124913707" type="farm" color="242,242,204" fill="1" layer="-11.00" shape="619.02,970.53 645.93,963.04 649.19,974.71 622.29,982.20 619.02,970.53"/>
    <poly id="127907799" type="unknown" color="51,128,255" fill="0" layer="-1.00" shape="972.58,651.60 984.06,680.68"/>
    <poly id="140892637" type="parking" color="184,184,179" fill="1" layer="-2.00" shape="1109.15,1024.01 1130.13,1018.54 1130.47,1019.61 1131.75,1023.66 1219.81,999.85 1218.82,995.90 1218.69,994.91 1265.56,983.18 1267.62,991.12 1256.58,1003.85 1239.83,1014.61 1115.20,1047.08 1109.15,1024.01"/>
    <poly id="142416572" type="unknown" color="51,128,255" fill="0" layer="-1.00" shape="654.98,973.72 658.64,987.79"/>
    <poly id="142416574" type="unknown" color="51,128,255" fill="0" layer="-1.00" shape="696.00,990.62 683.48,994.91"/>
    <poly id="144135880" type="unknown" color="51,128,255" fill="0" layer="-1.00" shape="448.58,455.54 447.95,456.98 445.10,463.25 442.50,468.96 446.35,480.49 449.55,492.15 473.80,568.97 481.50,596.31 484.73,608.20 495.98,643.64 502.78,664.93 504.68,670.08 505.41,672.07 511.33,690.01"/>
    <poly id="144692954" type="unknown" color="51,128,255" fill="0" layer="-1.00" shape="1064.95,938.34 788.45,1040.08"/>
    <poly id="144692955" type="unknown" color="51,128,255" fill="0" layer="-1.00" shape="990.52,815.09 960.90,700.98 953.57,673.02"/>
    <poly id="144928591" type="unknown" color="51,128,255" fill="0" layer="-1.00" shape="484.73,608.20 463.72,615.39"/>
    <poly id="144928594" type="unknown" color="51,128,255" fill="0" layer="-1.00" shape="463.72,615.39 448.83,620.22 444.45,621.43 434.98,624.04 361.34,643.28 354.80,647.74 346.91,651.24 319.59,661.13"/>
    <poly id="145036128" type="unknown" color="51,128,255" fill="0" layer="-1.00" shape="963.84,639.73 964.82,650.32 970.70,682.34 972.47,694.00"/>
    <poly id="145036129" type="unknown" color="51,128,255" fill="0" layer="-1.00" shape="825.80,666.67 833.73,669.25 879.58,654.13 916.67,641.51 926.68,637.69 941.97,632.14"/>
    <poly id="145431469" type="unknown" color="51,128,255" fill="0" layer="-1.00" shape="1246.37,893.24 1225.03,896.36 1164.04,911.27 1064.95,938.34"/>
    <poly id="145431470" type="unknown" color="51,128,255" fill="0" layer="-1.00" shape="1063.13,931.41 1162.75,904.34 1229.69,888.23 1244.28,883.76"/>
    <poly id="145786279" type="unknown" color="51,128,255" fill="0" layer="-1.00" shape="600.29,966.84 609.74,964.14 650.04,952.63 652.75,951.85 664.02,948.62 692.53,939.67 755.15,922.39 776.47,916.50 860.11,892.61"/>
    <poly id="145786280" type="unknown" color="51,128,255" fill="0" layer="-1.00" shape="600.29,966.84 619.25,1033.57 624.26,1051.31 626.36,1059.13 630.07,1071.90 631.73,1078.09"/>
    <poly id="146050877" type="unknown" color="51,128,255" fill="0" layer="-1.00" shape="1061.49,948.42 1056.41,951.40 1044.98,960.67"/>
    <poly id="146050879" type="unknown" color="51,128,255" fill="0" layer="-1.00" shape="1040.67,928.94 1049.69,926.40 1077.30,918.81 1141.05,901.11"/>
    <poly id="146050887" type="unknown" color="51,128,255" fill="0" layer="-1.00" shape="1246.37,893.24 1231.79,899.69 1194.97,909.55 1165.82,917.06 1113.43,932.24"/>
    <poly id="149929927" type="unknown" color="51,128,255" fill="0" layer="-1.00" shape="1001.96,994.17 994.02,996.73 966.15,1004.93"/>
    <poly id="150797475" type="building" color="255,230,230" fill="1" layer="2.00" shape="720.03,822.21 720.81,826.42 724.21,829.18 727.22,829.69 731.91,828.74 733.59,826.85 735.30,822.88 734.27,818.18 731.01,815.22 727.82,814.29 723.62,815.42 721.50,817.22 720.03,822.21"/>
    <poly id="150797475#1" type="historic" color="128,255,128" fill="1" layer="2.00" shape="720.03,822.21 720.81,826.42 724.21,829.18 727.22,829.69 731.91,828.74 733.59,826.85 735.30,822.88 734.27,818.18 731.01,815.22 727.82,814.29 723.62,815.42 721.50,817.22 720.03,822.21"/>
    <poly id="150797478" type="building" color="255,230,230" fill="1" layer="2.00" shape="1142.54,776.07 1161.60,764.79 1163.69,760.11 1162.21,755.60 1159.92,753.92 1158.90,749.41 1146.31,749.22 1146.34,753.40 1142.44,755.72 1144.96,759.64 1136.37,764.70 1136.88,766.18 1142.54,776.07"/>
    <poly id="150797484" type="building" color="255,230,230" fill="1" layer="2.00" shape="1117.20,678.78 1110.85,678.50 1104.46,678.22 1104.19,685.08 1099.38,684.69 1098.34,709.64 1100.04,718.09 1105.76,716.73 1106.14,718.32 1101.52,719.09 1102.65,724.61 1106.06,723.90 1106.95,728.53 1102.46,729.62 1114.10,786.27 1119.64,788.68 1142.54,776.07 1136.88,766.18 1125.79,771.96 1122.94,766.72 1115.14,727.01 1110.21,727.96 1109.25,723.24 1115.02,722.05 1113.88,717.05 1107.68,718.07 1105.90,708.21 1106.65,692.04 1116.48,692.47 1117.20,678.78"/>
    <poly id="150797486" type="building" color="255,230,230" fill="1" layer="2.00" shape="1084.70,718.71 1073.16,721.34 1077.25,739.32 1088.79,736.71 1084.70,718.71"/>
    <poly id="150797487" type="building" color="255,230,230" fill="1" layer="2.00" shape="1129.38,748.12 1135.33,748.22 1135.69,727.38 1129.74,727.28 1129.38,748.12"/>
    <poly id="150797488" type="building" color="255,230,230" fill="1" layer="2.00" shape="1077.76,779.05 1095.55,774.63 1094.86,771.87 1091.99,760.44 1074.20,764.87 1077.76,779.05"/>
    <poly id="150797491" type="building" color="255,230,230" fill="1" layer="2.00" shape="1146.94,709.97 1137.68,709.81 1137.78,703.97 1147.05,704.13 1146.94,709.97"/>
    <poly id="150797493" type="building" color="255,230,230" fill="1" layer="2.00" shape="1022.37,743.55 1035.64,739.42 1031.54,726.24 1018.26,730.36 1019.20,733.37 1022.37,743.55"/>
    <poly id="150797495" type="building" color="255,230,230" fill="1" layer="2.00" shape="1042.12,743.24 1055.22,739.16 1051.86,728.41 1038.76,732.49 1042.12,743.24"/>
    <poly id="150797497" type="building" color="255,230,230" fill="1" layer="2.00" shape="1066.73,725.32 1065.12,719.04 1053.78,721.93 1055.38,728.20 1066.73,725.32"/>
    <poly id="150797501" type="building" color="255,230,230" fill="1" layer="2.00" shape="1146.44,743.36 1141.01,743.27 1141.23,731.12 1146.64,731.21 1146.44,743.36"/>
    <poly id="150797502" type="building" color="255,230,230" fill="1" layer="2.00" shape="1146.94,709.97 1146.90,716.23 1137.58,716.07 1137.68,709.81 1146.94,709.97"/>
    <poly id="150797504" type="building" color="255,230,230" fill="1" layer="2.00" shape="1159.33,727.12 1159.58,710.16 1146.94,709.97 1146.90,716.23 1146.74,726.93 1159.33,727.12"/>
    <poly id="150797506" type="building" color="255,230,230" fill="1" layer="2.00" shape="1053.25,748.34 1063.37,783.88 1069.15,782.24 1063.38,762.00 1059.03,746.70 1053.25,748.34"/>
    <poly id="150797507" type="building" color="255,230,230" fill="1" layer="2.00" shape="1135.69,727.38 1137.58,727.41 1137.69,721.04 1129.85,720.90 1129.74,727.28 1135.69,727.38"/>
    <poly id="150797508" type="building" color="255,230,230" fill="1" layer="2.00" shape="1059.03,746.70 1060.71,746.17 1064.12,744.87 1068.48,760.66 1063.38,762.00 1059.03,746.70"/>
    <poly id="150797510" type="building" color="255,230,230" fill="1" layer="2.00" shape="1045.68,771.92 1047.45,771.37 1041.15,751.14 1026.19,755.81 1029.46,766.31 1032.49,776.03 1045.68,771.92"/>
    <poly id="150797511" type="building" color="255,230,230" fill="1" layer="2.00" shape="1026.19,755.81 1041.15,751.14 1037.33,738.88 1035.64,739.42 1022.37,743.55 1025.21,752.66 1026.19,755.81"/>
    <poly id="150797515" type="building" color="255,230,230" fill="1" layer="2.00" shape="1146.74,726.93 1146.64,731.21 1146.44,743.36 1146.31,749.22 1158.90,749.41 1159.33,727.12 1146.74,726.93"/>
    <poly id="150797517" type="building" color="255,230,230" fill="1" layer="2.00" shape="1041.12,689.46 1040.29,699.88 1039.89,704.70 1064.78,706.70 1065.08,702.97 1066.01,691.47 1053.57,690.47 1041.12,689.46"/>
    <poly id="150797519" type="building" color="255,230,230" fill="1" layer="2.00" shape="1060.71,746.17 1064.12,744.87 1070.14,742.59 1074.02,741.28 1071.48,734.41 1058.17,739.28 1060.71,746.17"/>
    <poly id="150797522" type="building" color="255,230,230" fill="1" layer="2.00" shape="1018.26,730.36 1031.54,726.24 1034.27,725.38 1030.18,712.24 1027.73,713.00 1026.26,708.27 1012.69,712.50 1013.78,715.99 1018.26,730.36"/>
    <poly id="150797523" type="building" color="255,230,230" fill="1" layer="2.00" shape="1026.26,708.27 1023.22,699.04 1040.29,699.88 1041.12,689.46 1018.78,688.04 1006.37,692.22 1009.70,702.89 1012.69,712.50 1026.26,708.27"/>
    <poly id="150797524" type="building" color="255,230,230" fill="1" layer="2.00" shape="1146.94,709.97 1159.58,710.16 1159.82,687.96 1152.02,679.78 1138.32,679.70 1137.67,691.93 1146.99,692.75 1147.05,704.13 1146.94,709.97"/>
    <poly id="150797526" type="building" color="255,230,230" fill="1" layer="2.00" shape="1088.79,736.71 1077.25,739.32 1078.44,744.56 1075.27,745.11 1074.02,741.28 1070.14,742.59 1073.10,755.58 1092.10,751.27 1089.93,741.72 1088.79,736.71"/>
    <poly id="150797527" type="building" color="255,230,230" fill="1" layer="2.00" shape="1038.47,795.21 1051.55,791.13 1050.18,786.72 1055.29,785.13 1052.08,774.83 1047.07,776.39 1045.68,771.92 1032.49,776.03 1035.70,786.33 1038.47,795.21"/>
    <poly id="150797529" type="building" color="255,230,230" fill="1" layer="2.00" shape="1138.32,679.70 1128.10,679.26 1117.20,678.78 1116.48,692.47 1121.15,692.71 1120.95,696.60 1133.03,697.24 1133.23,693.39 1137.59,693.61 1137.67,691.93 1138.32,679.70"/>
    <poly id="150797530" type="building" color="255,230,230" fill="1" layer="2.00" shape="1066.01,691.47 1065.08,702.97 1068.70,703.62 1071.12,714.83 1068.79,715.82 1070.96,722.13 1073.16,721.34 1084.70,718.71 1078.82,692.86 1066.01,691.47"/>
    <poly id="150797531" type="building" color="255,230,230" fill="1" layer="2.00" shape="1208.62,922.62 1157.29,935.93 1104.38,949.65 1105.75,954.88 1096.51,957.29 1098.99,966.81 1085.19,970.38 1094.46,1005.87 1108.92,1002.13 1111.41,1011.65 1121.08,1009.15 1122.41,1014.20 1226.05,987.32 1224.70,982.18 1235.07,979.49 1232.50,969.65 1246.31,966.07 1237.15,930.99 1222.37,934.83 1219.49,923.82 1209.61,926.39 1208.62,922.62"/>
    <poly id="150797531#1" type="tourism" color="207,245,201" fill="1" layer="2.00" shape="1208.62,922.62 1157.29,935.93 1104.38,949.65 1105.75,954.88 1096.51,957.29 1098.99,966.81 1085.19,970.38 1094.46,1005.87 1108.92,1002.13 1111.41,1011.65 1121.08,1009.15 1122.41,1014.20 1226.05,987.32 1224.70,982.18 1235.07,979.49 1232.50,969.65 1246.31,966.07 1237.15,930.99 1222.37,934.83 1219.49,923.82 1209.61,926.39 1208.62,922.62"/>
    <poly id="150797532" type="historic" color="128,255,128" fill="1" layer="2.00" shape="642.93,923.08 599.08,768.34 816.41,708.44 859.67,865.56 642.93,923.08"/>
    <poly id="150797532#1" type="tourism" color="207,245,201" fill="1" layer="-10.00" shape="642.93,923.08 599.08,768.34 816.41,708.44 859.67,865.56 642.93,923.08"/>
    <poly id="150797533" type="landuse" color="194,194,130" fill="1" layer="-4.00" shape="864.33,808.64 878.18,856.62 867.96,859.94 854.14,811.09 864.33,808.64"/>
    <poly id="150797534" type="unknown" color="51,128,255" fill="1" layer="-1.00" shape="767.63,841.92 767.66,837.22 769.08,834.41 772.30,832.36 776.02,832.19 779.12,833.68 781.51,837.24 781.63,840.94 779.78,844.42 776.53,846.39 772.38,846.36 769.08,844.28 767.63,841.92"/>
    <poly id="150797535" type="unknown" color="51,128,255" fill="1" layer="-1.00" shape="688.30,864.45 688.03,860.22 689.76,856.94 692.98,854.89 696.69,854.73 699.79,856.21 702.17,859.77 702.31,863.47 700.44,866.96 697.20,868.92 693.04,868.89 689.75,866.81 688.30,864.45"/>
    <poly id="150797536" type="unknown" color="51,128,255" fill="1" layer="-1.00" shape="716.41,819.33 716.15,826.05 719.94,831.86 725.02,834.19 730.21,833.91 734.84,831.23 737.74,826.60 737.83,819.92 734.14,814.37 729.32,812.08 724.10,812.23 719.54,814.69 716.41,819.33"/>
    <poly id="150797537" type="unknown" color="51,128,255" fill="1" layer="-1.00" shape="752.13,786.79 751.85,782.57 753.58,779.29 756.79,777.23 760.51,777.07 763.62,778.55 766.00,782.12 766.14,785.82 764.27,789.30 761.02,791.26 756.87,791.23 754.22,789.72 752.13,786.79"/>
    <poly id="150797538" type="unknown" color="51,128,255" fill="1" layer="-1.00" shape="672.50,808.43 672.48,804.79 674.21,801.51 677.43,799.46 681.14,799.30 684.24,800.78 686.63,804.34 686.76,808.04 684.90,811.53 681.66,813.49 677.50,813.46 674.21,811.38 672.50,808.43"/>
    <poly id="150797539" type="unknown" color="51,128,255" fill="0" layer="-1.00" shape="766.00,782.12 789.28,776.22"/>
    <poly id="150797540" type="unknown" color="51,128,255" fill="0" layer="-1.00" shape="776.53,846.39 780.60,862.50"/>
    <poly id="150797541" type="unknown" color="51,128,255" fill="0" layer="-1.00" shape="734.14,814.37 754.22,789.72"/>
    <poly id="150797542" type="unknown" color="51,128,255" fill="0" layer="-1.00" shape="737.74,826.60 767.66,837.22"/>
    <poly id="150797543" type="unknown" color="51,128,255" fill="0" layer="-1.00" shape="1010.79,826.44 985.22,833.74"/>
    <poly id="150797544" type="unknown" color="51,128,255" fill="0" layer="-1.00" shape="665.22,870.28 688.30,864.45"/>
    <poly id="150797545" type="unknown" color="51,128,255" fill="0" layer="-1.00" shape="650.10,814.06 672.50,808.43"/>
    <poly id="150797546" type="unknown" color="51,128,255" fill="0" layer="-1.00" shape="699.79,856.21 719.94,831.86"/>
    <poly id="150797547" type="unknown" color="51,128,255" fill="0" layer="-1.00" shape="781.51,837.24 804.75,831.56"/>
    <poly id="150797548" type="unknown" color="51,128,255" fill="0" layer="-1.00" shape="737.83,819.92 766.63,812.20 797.40,803.55"/>
    <poly id="150797549" type="unknown" color="51,128,255" fill="0" layer="-1.00" shape="761.02,791.26 766.63,812.20 772.30,832.36"/>
    <poly id="150797550" type="unknown" color="51,128,255" fill="0" layer="-1.00" shape="702.17,859.77 735.06,851.06 767.63,841.92"/>
    <poly id="150797551" type="unknown" color="51,128,255" fill="0" layer="-1.00" shape="681.66,813.49 687.83,833.98 692.98,854.89"/>
    <poly id="150797552" type="unknown" color="51,128,255" fill="0" layer="-1.00" shape="686.63,804.34 719.72,795.92 752.13,786.79"/>
    <poly id="150797553" type="water" color="181,209,209" fill="1" layer="-10.00" shape="757.65,780.26 756.11,781.23 755.14,782.91 755.17,785.16 756.06,786.67 758.19,787.83 760.14,787.71 761.85,786.58 762.73,784.93 762.70,782.91 761.72,781.21 759.87,780.15 757.65,780.26"/>
    <poly id="150797554" type="water" color="181,209,209" fill="1" layer="-10.00" shape="678.28,802.48 676.74,803.45 675.77,805.13 675.81,807.37 676.69,808.89 678.82,810.05 680.77,809.93 682.48,808.81 683.37,807.16 683.34,805.13 682.35,803.43 680.50,802.38 678.28,802.48"/>
    <poly id="150797555" type="water" color="181,209,209" fill="1" layer="-10.00" shape="773.15,835.38 771.62,836.36 770.64,838.04 770.68,840.27 771.57,841.80 773.70,842.96 775.64,842.83 777.36,841.71 778.24,840.06 778.21,838.03 777.22,836.33 775.38,835.28 773.15,835.38"/>
    <poly id="150797556" type="water" color="181,209,209" fill="1" layer="-10.00" shape="693.82,857.91 692.29,858.88 691.31,860.56 691.35,862.80 692.24,864.32 694.37,865.48 696.31,865.36 698.03,864.24 698.91,862.59 698.89,860.56 697.90,858.86 696.05,857.81 693.82,857.91"/>
    <poly id="151878378" type="unknown" color="51,128,255" fill="0" layer="-1.00" shape="535.40,784.00 544.64,785.47"/>
    <poly id="151878388" type="unknown" color="51,128,255" fill="0" layer="-1.00" shape="422.43,813.83 454.60,805.08 530.19,784.43 535.40,784.00"/>
    <poly id="154782357" type="unknown" color="51,128,255" fill="0" layer="-1.00" shape="862.19,1133.71 855.68,1083.62 844.53,1037.17"/>
    <poly id="155134931" type="forest" color="140,196,107" fill="1" layer="-11.00" shape="1369.74,1250.02 1379.76,1257.83 1389.80,1264.82 1401.19,1275.35 1407.66,1286.60 1425.08,1295.26 1443.46,1290.10 1446.58,1299.84 1424.92,1324.41 1431.08,1329.98 1448.84,1326.88 1444.05,1365.20 1455.18,1381.12 1462.92,1397.17 1497.77,1400.94 1504.99,1382.63 1509.24,1372.81 1515.89,1357.43 1528.08,1339.67 1536.65,1324.86 1555.76,1304.48 1550.13,1274.41 1496.00,1209.40 1484.71,1205.72 1388.97,1133.87 1412.93,1055.79 1457.43,1027.77 1474.60,1024.32 1517.84,987.43 1508.13,980.46 1498.33,973.04 1487.99,965.69 1474.47,956.46 1460.97,947.65 1446.95,938.93 1432.96,930.47 1421.58,923.71 1409.94,917.10 1382.87,903.06 1375.38,898.78 1370.11,894.00 1363.36,887.79 1361.03,884.06 1358.03,879.36 1357.49,878.34 1310.22,891.19 1306.14,892.30 1294.70,895.41 1284.54,898.17 1248.16,907.84 1265.56,983.18 1267.62,991.12 1256.58,1003.85 1239.83,1014.61 1092.44,1053.10 1069.13,965.95 1062.34,968.07 1059.14,963.71 1055.96,964.04 1052.85,969.03 1031.63,994.24 1048.26,1052.06 1064.35,1074.84 1086.63,1096.29 1109.90,1075.86 1139.16,1068.55 1185.66,1095.98 1210.55,1104.02 1202.71,1117.11 1179.98,1121.91 1159.29,1131.47 1158.49,1149.53 1184.05,1149.42 1197.05,1151.61 1195.50,1162.84 1199.23,1173.43 1207.96,1177.76 1224.20,1176.76 1260.89,1188.23 1259.01,1235.20 1278.61,1270.09 1302.77,1270.40 1314.09,1212.92 1338.35,1218.10 1347.96,1233.05 1358.43,1242.30 1369.74,1250.02"/>