<?xml version="1.0"?>
<!-- generated on 2015-04-29 15:06:18.010194 by $Id: randomTrips.py 18255 2015-04-21 11:46:31Z namdre $
  options: <doubleminus>n Munich.net.xml -r peds.rou.xml -t type="ped" -c pedestrian <doubleminus>pedestrians <doubleminus>additional-files ped.add.xml –-max-dist 800 -p 1.4 -e 1000 -l
-->
<trips>
    <person id="0" depart="0.00" type="ped">
        <walk from="46619337#0" to="312008151#0" />
    </person>
    <person id="1" depart="1.40" type="ped">
        <walk from="25505401#1" to="246765183#2" />
    </person>
    <person id="2" depart="2.80" type="ped">
        <walk from="150797552#1" to="-145786279#4" />
    </person>
    <person id="3" depart="4.20" type="ped">
        <walk from="26557052#1" to="25505401#1" />
    </person>
    <person id="4" depart="5.60" type="ped">
        <walk from="10071036#0" to="4662372" />
    </person>
    <person id="5" depart="7.00" type="ped">
        <walk from="35881800" to="19686222" />
    </person>
    <person id="6" depart="8.40" type="ped">
        <walk from="4662372" to="46617424" />
    </person>
    <person id="7" depart="9.80" type="ped">
        <walk from="4016240" to="259225361" />
    </person>
    <person id="8" depart="11.20" type="ped">
        <walk from="32790537#0" to="25503943#4" />
    </person>
    <person id="9" depart="12.60" type="ped">
        <walk from="4427328#2" to="160015857" />
    </person>
    <person id="10" depart="14.00" type="ped">
        <walk from="23458686" to="47229154#1" />
    </person>
    <person id="11" depart="15.40" type="ped">
        <walk from="150797548#0" to="23458686" />
    </person>
    <person id="12" depart="16.80" type="ped">
        <walk from="3812120#0" to="3812120#1" />
    </person>
    <person id="13" depart="18.20" type="ped">
        <walk from="-26798625#0" to="3845695#2" />
    </person>
    <person id="14" depart="19.60" type="ped">
        <walk from="144135880#0" to="144135880#0" />
    </person>
    <person id="15" depart="21.00" type="ped">
        <walk from="250939659" to="26572563" />
    </person>
    <person id="16" depart="22.40" type="ped">
        <walk from="-4016239" to="3790920#3" />
    </person>
    <person id="17" depart="23.80" type="ped">
        <walk from="57731066" to="47229154#1" />
    </person>
    <person id="18" depart="25.20" type="ped">
        <walk from="150797546" to="259225361" />
    </person>
    <person id="19" depart="26.60" type="ped">
        <walk from="-25507204#1" to="292960293" />
    </person>
    <person id="20" depart="28.00" type="ped">
        <walk from="259225353" to="35881800" />
    </person>
    <person id="21" depart="29.40" type="ped">
        <walk from="47229154#1" to="144692954" />
    </person>
    <person id="22" depart="30.80" type="ped">
        <walk from="150797546" to="259131001" />
    </person>
    <person id="23" depart="32.20" type="ped">
        <walk from="144135880#0" to="24899812#5" />
    </person>
    <person id="24" depart="33.60" type="ped">
        <walk from="10071036#0" to="3845694" />
    </person>
    <person id="25" depart="35.00" type="ped">
        <walk from="3845696" to="88890339#0" />
    </person>
    <person id="26" depart="36.40" type="ped">
        <walk from="19371003" to="25505401#4" />
    </person>
    <person id="27" depart="37.80" type="ped">
        <walk from="10071036#0" to="3791694#0" />
    </person>
    <person id="28" depart="39.20" type="ped">
        <walk from="292960298#1" to="292960293" />
    </person>
    <person id="29" depart="40.60" type="ped">
        <walk from="53759587" to="-167443079#1" />
    </person>
    <person id="30" depart="42.00" type="ped">
        <walk from="124911348#1" to="53759587" />
    </person>
    <person id="31" depart="43.40" type="ped">
        <walk from="-57731066" to="-3845694" />
    </person>
    <person id="32" depart="44.80" type="ped">
        <walk from="4016239" to="24899812#4" />
    </person>
    <person id="33" depart="46.20" type="ped">
        <walk from="-167443079#1" to="259131001" />
    </person>
    <person id="34" depart="47.60" type="ped">
        <walk from="47229154#1" to="40317918" />
    </person>
    <person id="35" depart="49.00" type="ped">
        <walk from="4016238" to="316489762#3" />
    </person>
    <person id="36" depart="50.40" type="ped">
        <walk from="259225335" to="326264226" />
    </person>
    <person id="37" depart="51.80" type="ped">
        <walk from="47229154#1" to="151878388#0" />
    </person>
    <person id="38" depart="53.20" type="ped">
        <walk from="144692955" to="315220266" />
    </person>
    <person id="39" depart="54.60" type="ped">
        <walk from="292960292" to="312008150" />
    </person>
    <person id="40" depart="56.00" type="ped">
        <walk from="3790925#1" to="35881800" />
    </person>
    <person id="41" depart="57.40" type="ped">
        <walk from="4016239" to="-4645439#1" />
    </person>
    <person id="42" depart="58.80" type="ped">
        <walk from="-4016238" to="3845694" />
    </person>
    <person id="43" depart="60.20" type="ped">
        <walk from="151878388#1" to="-167443079#1" />
    </person>
    <person id="44" depart="61.60" type="ped">
        <walk from="3790920#9" to="3790918#1" />
    </person>
    <person id="45" depart="63.00" type="ped">
        <walk from="146050887" to="3812120#3" />
    </person>
    <person id="46" depart="64.40" type="ped">
        <walk from="150797552#0" to="23458686" />
    </person>
    <person id="47" depart="65.80" type="ped">
        <walk from="19686065#0" to="292960293" />
    </person>
    <person id="48" depart="67.20" type="ped">
        <walk from="55603906#1" to="3790920#4" />
    </person>
    <person id="49" depart="68.60" type="ped">
        <walk from="-144928594#2" to="146050887" />
    </person>
    <person id="50" depart="70.00" type="ped">
        <walk from="124911339#0" to="-3845694" />
    </person>
    <person id="51" depart="71.40" type="ped">
        <walk from="3791698#1" to="88890339#2" />
    </person>
    <person id="52" depart="72.80" type="ped">
        <walk from="3790906" to="292960291" />
    </person>
    <person id="53" depart="74.20" type="ped">
        <walk from="10070529" to="3812120#2" />
    </person>
    <person id="54" depart="75.60" type="ped">
        <walk from="4662372" to="3790918#2" />
    </person>
    <person id="55" depart="77.00" type="ped">
        <walk from="3845694" to="3790920#3" />
    </person>
    <person id="56" depart="78.40" type="ped">
        <walk from="28050476" to="3790920#7" />
    </person>
    <person id="57" depart="79.80" type="ped">
        <walk from="47229154#1" to="-167443078" />
    </person>
    <person id="58" depart="81.20" type="ped">
        <walk from="19686222" to="4662372" />
    </person>
    <person id="59" depart="82.60" type="ped">
        <walk from="88890339#2" to="3812120#3" />
    </person>
    <person id="60" depart="84.00" type="ped">
        <walk from="4016239" to="3790903#2" />
    </person>
    <person id="61" depart="85.40" type="ped">
        <walk from="88890339#2" to="57731066" />
    </person>
    <person id="62" depart="86.80" type="ped">
        <walk from="124911348#1" to="10071036#0" />
    </person>
    <person id="63" depart="88.20" type="ped">
        <walk from="150797552#0" to="40317918" />
    </person>
    <person id="64" depart="89.60" type="ped">
        <walk from="3812253" to="146050887" />
    </person>
    <person id="65" depart="91.00" type="ped">
        <walk from="26557052#1" to="19686162" />
    </person>
    <person id="66" depart="92.40" type="ped">
        <walk from="19371348#1" to="30762508#0" />
    </person>
    <person id="67" depart="93.80" type="ped">
        <walk from="3790918#2" to="31232317#1" />
    </person>
    <person id="68" depart="95.20" type="ped">
        <walk from="53768481#1" to="144135880#6" />
    </person>
    <person id="69" depart="96.60" type="ped">
        <walk from="-4016239" to="88890339#2" />
    </person>
    <person id="70" depart="98.00" type="ped">
        <walk from="3790904#0" to="88890339#2" />
    </person>
    <person id="71" depart="99.40" type="ped">
        <walk from="88890339#2" to="40317918" />
    </person>
    <person id="72" depart="100.80" type="ped">
        <walk from="-120199713#2" to="24899810#2" />
    </person>
    <person id="73" depart="102.20" type="ped">
        <walk from="292960293" to="26572563" />
    </person>
    <person id="74" depart="103.60" type="ped">
        <walk from="46617422#1" to="28338981" />
    </person>
    <person id="75" depart="105.00" type="ped">
        <walk from="31232317#1" to="259225382" />
    </person>
    <person id="76" depart="106.40" type="ped">
        <walk from="88890339#0" to="47229154#1" />
    </person>
    <person id="77" depart="107.80" type="ped">
        <walk from="3790908" to="270437303" />
    </person>
    <person id="78" depart="109.20" type="ped">
        <walk from="19371003" to="3790904#0" />
    </person>
    <person id="79" depart="110.60" type="ped">
        <walk from="120199713#3" to="3790917#3" />
    </person>
    <person id="80" depart="112.00" type="ped">
        <walk from="47229154#0" to="3790925#2" />
    </person>
    <person id="81" depart="113.40" type="ped">
        <walk from="73260233#0" to="98384327" />
    </person>
    <person id="82" depart="114.80" type="ped">
        <walk from="3812120#1" to="150797539" />
    </person>
    <person id="83" depart="116.20" type="ped">
        <walk from="98384330#1" to="-4016239" />
    </person>
    <person id="84" depart="117.60" type="ped">
        <walk from="25882330" to="145431470" />
    </person>
    <person id="85" depart="119.00" type="ped">
        <walk from="118282031#1" to="40317918" />
    </person>
    <person id="86" depart="120.40" type="ped">
        <walk from="292960291" to="-26572563" />
    </person>
    <person id="87" depart="121.80" type="ped">
        <walk from="259225329" to="124911339#2" />
    </person>
    <person id="88" depart="123.20" type="ped">
        <walk from="53759587" to="-145036129#0" />
    </person>
    <person id="89" depart="124.60" type="ped">
        <walk from="24899810#2" to="88890339#2" />
    </person>
    <person id="90" depart="126.00" type="ped">
        <walk from="57731066" to="3790917#4" />
    </person>
    <person id="91" depart="127.40" type="ped">
        <walk from="124911339#2" to="-120199713#2" />
    </person>
    <person id="92" depart="128.80" type="ped">
        <walk from="-47722621" to="150797538#4" />
    </person>
    <person id="93" depart="130.20" type="ped">
        <walk from="3812253" to="3845695#1" />
    </person>
    <person id="94" depart="131.60" type="ped">
        <walk from="3790926#1" to="247801170" />
    </person>
    <person id="95" depart="133.00" type="ped">
        <walk from="47229154#1" to="-316667284#0" />
    </person>
    <person id="96" depart="134.40" type="ped">
        <walk from="146050887" to="-145786279#6" />
    </person>
    <person id="97" depart="135.80" type="ped">
        <walk from="30762508#1" to="3790905" />
    </person>
    <person id="98" depart="137.20" type="ped">
        <walk from="292960292" to="46648699" />
    </person>
    <person id="99" depart="138.60" type="ped">
        <walk from="3790910" to="88890339#2" />
    </person>
    <person id="100" depart="140.00" type="ped">
        <walk from="292960291" to="-144928594#2" />
    </person>
    <person id="101" depart="141.40" type="ped">
        <walk from="3790906" to="4427328#2" />
    </person>
    <person id="102" depart="142.80" type="ped">
        <walk from="278513973#1" to="25505401#5" />
    </person>
    <person id="103" depart="144.20" type="ped">
        <walk from="26798625#0" to="4016239" />
    </person>
    <person id="104" depart="145.60" type="ped">
        <walk from="3812120#2" to="150797547" />
    </person>
    <person id="105" depart="147.00" type="ped">
        <walk from="10071036#0" to="150797550#0" />
    </person>
    <person id="106" depart="148.40" type="ped">
        <walk from="3790926#0" to="3790916#2" />
    </person>
    <person id="107" depart="149.80" type="ped">
        <walk from="144692955" to="4662372" />
    </person>
    <person id="108" depart="151.20" type="ped">
        <walk from="88890339#2" to="47229154#1" />
    </person>
    <person id="109" depart="152.60" type="ped">
        <walk from="73260233#0" to="3845694" />
    </person>
    <person id="110" depart="154.00" type="ped">
        <walk from="-145786280#0" to="-26572563" />
    </person>
    <person id="111" depart="155.40" type="ped">
        <walk from="25505401#4" to="-145786279#1" />
    </person>
    <person id="112" depart="156.80" type="ped">
        <walk from="144928594#2" to="144928594#2" />
    </person>
    <person id="113" depart="158.20" type="ped">
        <walk from="-19371348#1" to="-3845694" />
    </person>
    <person id="114" depart="159.60" type="ped">
        <walk from="-4016239" to="145431470" />
    </person>
    <person id="115" depart="161.00" type="ped">
        <walk from="150797549#0" to="3790918#1" />
    </person>
    <person id="116" depart="162.40" type="ped">
        <walk from="24899810#1" to="47229154#0" />
    </person>
    <person id="117" depart="163.80" type="ped">
        <walk from="246765183#2" to="145036129#0" />
    </person>
    <person id="118" depart="165.20" type="ped">
        <walk from="253201220" to="-151878388#1" />
    </person>
    <person id="119" depart="166.60" type="ped">
        <walk from="29099628#1" to="144692954" />
    </person>
    <person id="120" depart="168.00" type="ped">
        <walk from="292960298#2" to="19371510" />
    </person>
    <person id="121" depart="169.40" type="ped">
        <walk from="31232317#1" to="-19371348#0" />
    </person>
    <person id="122" depart="170.80" type="ped">
        <walk from="144692954" to="47229154#0" />
    </person>
    <person id="123" depart="172.20" type="ped">
        <walk from="53768481#1" to="3845695#2" />
    </person>
    <person id="124" depart="173.60" type="ped">
        <walk from="120199713#3" to="86334240" />
    </person>
    <person id="125" depart="175.00" type="ped">
        <walk from="19686162" to="144135880#1" />
    </person>
    <person id="126" depart="176.40" type="ped">
        <walk from="25882651" to="29099623" />
    </person>
    <person id="127" depart="177.80" type="ped">
        <walk from="73260233#0" to="-145036129#0" />
    </person>
    <person id="128" depart="179.20" type="ped">
        <walk from="3812120#2" to="3812253" />
    </person>
    <person id="129" depart="180.60" type="ped">
        <walk from="-120199713#2" to="-316667284#0" />
    </person>
    <person id="130" depart="182.00" type="ped">
        <walk from="-4016239" to="124911339#2" />
    </person>
    <person id="131" depart="183.40" type="ped">
        <walk from="270437303" to="4645439#1" />
    </person>
    <person id="132" depart="184.80" type="ped">
        <walk from="124911345#0" to="3791705#2" />
    </person>
    <person id="133" depart="186.20" type="ped">
        <walk from="25882290" to="3790910" />
    </person>
    <person id="134" depart="187.60" type="ped">
        <walk from="-26572563" to="27350220#1" />
    </person>
    <person id="135" depart="189.00" type="ped">
        <walk from="-3845694" to="144692954" />
    </person>
    <person id="136" depart="190.40" type="ped">
        <walk from="-19371348#0" to="144692955" />
    </person>
    <person id="137" depart="191.80" type="ped">
        <walk from="25503943#0" to="246765183#2" />
    </person>
    <person id="138" depart="193.20" type="ped">
        <walk from="292960298#1" to="292960293" />
    </person>
    <person id="139" depart="194.60" type="ped">
        <walk from="25507204#1" to="-26798625#0" />
    </person>
    <person id="140" depart="196.00" type="ped">
        <walk from="246765183#2" to="53759588" />
    </person>
    <person id="141" depart="197.40" type="ped">
        <walk from="124911339#1" to="124911355" />
    </person>
    <person id="142" depart="198.80" type="ped">
        <walk from="3790917#3" to="35881800" />
    </person>
    <person id="143" depart="200.20" type="ped">
        <walk from="4016239" to="3790905" />
    </person>
    <person id="144" depart="201.60" type="ped">
        <walk from="28338981" to="338268411#1+338648413#1" />
    </person>
    <person id="145" depart="203.00" type="ped">
        <walk from="-167443079#0" to="10070529" />
    </person>
    <person id="146" depart="204.40" type="ped">
        <walk from="57731066" to="292960293" />
    </person>
    <person id="147" depart="205.80" type="ped">
        <walk from="292960298#1" to="3812120#1" />
    </person>
    <person id="148" depart="207.20" type="ped">
        <walk from="146050887" to="10071036#0" />
    </person>
    <person id="149" depart="208.60" type="ped">
        <walk from="145786280#0" to="150797548#0" />
    </person>
    <person id="150" depart="210.00" type="ped">
        <walk from="23458686" to="-167443079#1" />
    </person>
    <person id="151" depart="211.40" type="ped">
        <walk from="145786279#7" to="4016239" />
    </person>
    <person id="152" depart="212.80" type="ped">
        <walk from="146050887" to="3790917#2" />
    </person>
    <person id="153" depart="214.20" type="ped">
        <walk from="144692954" to="98384330#1" />
    </person>
    <person id="154" depart="215.60" type="ped">
        <walk from="32790537#0" to="46617424" />
    </person>
    <person id="155" depart="217.00" type="ped">
        <walk from="10071036#0" to="247801172" />
    </person>
    <person id="156" depart="218.40" type="ped">
        <walk from="3845695#2" to="3790904#0" />
    </person>
    <person id="157" depart="219.80" type="ped">
        <walk from="145431469" to="-26572563" />
    </person>
    <person id="158" depart="221.20" type="ped">
        <walk from="4645439#1" to="3790918#1" />
    </person>
    <person id="159" depart="222.60" type="ped">
        <walk from="292960293" to="55603906#3" />
    </person>
    <person id="160" depart="224.00" type="ped">
        <walk from="3790918#3" to="55603906#1" />
    </person>
    <person id="161" depart="225.40" type="ped">
        <walk from="31232317#1" to="144692954" />
    </person>
    <person id="162" depart="226.80" type="ped">
        <walk from="259131001" to="47229154#1" />
    </person>
    <person id="163" depart="228.20" type="ped">
        <walk from="3790927#1" to="19371348#0" />
    </person>
    <person id="164" depart="229.60" type="ped">
        <walk from="-3845696" to="26572563" />
    </person>
    <person id="165" depart="231.00" type="ped">
        <walk from="3790922#3" to="292960293" />
    </person>
    <person id="166" depart="232.40" type="ped">
        <walk from="47229154#0" to="25882651" />
    </person>
    <person id="167" depart="233.80" type="ped">
        <walk from="246765183#2" to="73260233#0" />
    </person>
    <person id="168" depart="235.20" type="ped">
        <walk from="-120199713#1" to="31232317#1" />
    </person>
    <person id="169" depart="236.60" type="ped">
        <walk from="-4016238" to="47229154#1" />
    </person>
    <person id="170" depart="238.00" type="ped">
        <walk from="3791697#4" to="160013419#1" />
    </person>
    <person id="171" depart="239.40" type="ped">
        <walk from="46619336" to="10071036#0" />
    </person>
    <person id="172" depart="240.80" type="ped">
        <walk from="-167443078" to="46617424" />
    </person>
    <person id="173" depart="242.20" type="ped">
        <walk from="-145786280#0" to="88890339#0" />
    </person>
    <person id="174" depart="243.60" type="ped">
        <walk from="28050475" to="120199713#1" />
    </person>
    <person id="175" depart="245.00" type="ped">
        <walk from="30762508#1" to="3791713" />
    </person>
    <person id="176" depart="246.40" type="ped">
        <walk from="151878388#1" to="4016239" />
    </person>
    <person id="177" depart="247.80" type="ped">
        <walk from="144692954" to="46650516" />
    </person>
    <person id="178" depart="249.20" type="ped">
        <walk from="154782357" to="259225344" />
    </person>
    <person id="179" depart="250.60" type="ped">
        <walk from="-3845695#1" to="145431469" />
    </person>
    <person id="180" depart="252.00" type="ped">
        <walk from="47229154#1" to="30762508#0" />
    </person>
    <person id="181" depart="253.40" type="ped">
        <walk from="3790920#7" to="-47722621" />
    </person>
    <person id="182" depart="254.80" type="ped">
        <walk from="10070529" to="145431469" />
    </person>
    <person id="183" depart="256.20" type="ped">
        <walk from="124911357#0" to="4427328#2" />
    </person>
    <person id="184" depart="257.60" type="ped">
        <walk from="145786280#1" to="19371510" />
    </person>
    <person id="185" depart="259.00" type="ped">
        <walk from="35881800" to="3790903#1" />
    </person>
    <person id="186" depart="260.40" type="ped">
        <walk from="3790920#9" to="145431470" />
    </person>
    <person id="187" depart="261.80" type="ped">
        <walk from="144135880#0" to="292960293" />
    </person>
    <person id="188" depart="263.20" type="ped">
        <walk from="3790920#7" to="-120199713#1" />
    </person>
    <person id="189" depart="264.60" type="ped">
        <walk from="167443080#0" to="46650890" />
    </person>
    <person id="190" depart="266.00" type="ped">
        <walk from="154782357" to="278513972" />
    </person>
    <person id="191" depart="267.40" type="ped">
        <walk from="-144928594#2" to="3790922#2" />
    </person>
    <person id="192" depart="268.80" type="ped">
        <walk from="46617424" to="-26572563" />
    </person>
    <person id="193" depart="270.20" type="ped">
        <walk from="46617424" to="25503943#5" />
    </person>
    <person id="194" depart="271.60" type="ped">
        <walk from="-145786280#0" to="3790917#2" />
    </person>
    <person id="195" depart="273.00" type="ped">
        <walk from="145786279#1" to="259225357" />
    </person>
    <person id="196" depart="274.40" type="ped">
        <walk from="28338979#1" to="246765191#0" />
    </person>
    <person id="197" depart="275.80" type="ped">
        <walk from="-145036129#1" to="29099625#0" />
    </person>
    <person id="198" depart="277.20" type="ped">
        <walk from="246765183#2" to="144692954" />
    </person>
    <person id="199" depart="278.60" type="ped">
        <walk from="31232317#1" to="144692954" />
    </person>
    <person id="200" depart="280.00" type="ped">
        <walk from="124911344#1" to="24899812#1" />
    </person>
    <person id="201" depart="281.40" type="ped">
        <walk from="-4016239" to="10071036#0" />
    </person>
    <person id="202" depart="282.80" type="ped">
        <walk from="3790920#2" to="28338974" />
    </person>
    <person id="203" depart="284.20" type="ped">
        <walk from="47229154#0" to="-151878388#0" />
    </person>
    <person id="204" depart="285.60" type="ped">
        <walk from="3790908" to="150797550#0" />
    </person>
    <person id="205" depart="287.00" type="ped">
        <walk from="10071036#0" to="-4016239" />
    </person>
    <person id="206" depart="288.40" type="ped">
        <walk from="3790908" to="-19371348#0" />
    </person>
    <person id="207" depart="289.80" type="ped">
        <walk from="144692955" to="-19371348#0" />
    </person>
    <person id="208" depart="291.20" type="ped">
        <walk from="259226066" to="10071036#0" />
    </person>
    <person id="209" depart="292.60" type="ped">
        <walk from="270437303" to="144692954" />
    </person>
    <person id="210" depart="294.00" type="ped">
        <walk from="259225331" to="46650527" />
    </person>
    <person id="211" depart="295.40" type="ped">
        <walk from="19686065#0" to="150797541" />
    </person>
    <person id="212" depart="296.80" type="ped">
        <walk from="24899810#2" to="53759587" />
    </person>
    <person id="213" depart="298.20" type="ped">
        <walk from="88890339#2" to="282899973" />
    </person>
    <person id="214" depart="299.60" type="ped">
        <walk from="144135880#1" to="150797546" />
    </person>
    <person id="215" depart="301.00" type="ped">
        <walk from="30762508#0" to="145786279#7" />
    </person>
    <person id="216" depart="302.40" type="ped">
        <walk from="10070529" to="-26798625#0" />
    </person>
    <person id="217" depart="303.80" type="ped">
        <walk from="-3845695#3" to="-167443079#1" />
    </person>
    <person id="218" depart="305.20" type="ped">
        <walk from="144692954" to="-4016239" />
    </person>
    <person id="219" depart="306.60" type="ped">
        <walk from="-26572563" to="118282031#1" />
    </person>
    <person id="220" depart="308.00" type="ped">
        <walk from="47722621" to="259225385#1" />
    </person>
    <person id="221" depart="309.40" type="ped">
        <walk from="312008145#1" to="28338981" />
    </person>
    <person id="222" depart="310.80" type="ped">
        <walk from="19371003" to="19371348#1" />
    </person>
    <person id="223" depart="312.20" type="ped">
        <walk from="3790920#7" to="29099628#1" />
    </person>
    <person id="224" depart="313.60" type="ped">
        <walk from="246765183#2" to="88890339#2" />
    </person>
    <person id="225" depart="315.00" type="ped">
        <walk from="46617424" to="160013419#1" />
    </person>
    <person id="226" depart="316.40" type="ped">
        <walk from="-4645439#0" to="88890339#2" />
    </person>
    <person id="227" depart="317.80" type="ped">
        <walk from="-145786279#7" to="-4016239" />
    </person>
    <person id="228" depart="319.20" type="ped">
        <walk from="146050879#1" to="-26572563" />
    </person>
    <person id="229" depart="320.60" type="ped">
        <walk from="10071036#0" to="4427328#2" />
    </person>
    <person id="230" depart="322.00" type="ped">
        <walk from="150797551#0" to="167443078" />
    </person>
    <person id="231" depart="323.40" type="ped">
        <walk from="150797552#1" to="3845696" />
    </person>
    <person id="232" depart="324.80" type="ped">
        <walk from="-4016238" to="47722621" />
    </person>
    <person id="233" depart="326.20" type="ped">
        <walk from="149929927#1" to="167443078" />
    </person>
    <person id="234" depart="327.60" type="ped">
        <walk from="46619337#1" to="-4016239" />
    </person>
    <person id="235" depart="329.00" type="ped">
        <walk from="88890339#2" to="27350220#1" />
    </person>
    <person id="236" depart="330.40" type="ped">
        <walk from="247801169" to="118282031#1" />
    </person>
    <person id="237" depart="331.80" type="ped">
        <walk from="19371003" to="32790537#0" />
    </person>
    <person id="238" depart="333.20" type="ped">
        <walk from="10071036#0" to="315220266" />
    </person>
    <person id="239" depart="334.60" type="ped">
        <walk from="35881800" to="3812120#3" />
    </person>
    <person id="240" depart="336.00" type="ped">
        <walk from="32790537#0" to="-3845695#3" />
    </person>
    <person id="241" depart="337.40" type="ped">
        <walk from="47229154#0" to="-3845694" />
    </person>
    <person id="242" depart="338.80" type="ped">
        <walk from="144928594#2" to="29099625#0" />
    </person>
    <person id="243" depart="340.20" type="ped">
        <walk from="-316667284#0" to="4016239" />
    </person>
    <person id="244" depart="341.60" type="ped">
        <walk from="88890339#2" to="146050887" />
    </person>
    <person id="245" depart="343.00" type="ped">
        <walk from="27350220#1" to="150797544" />
    </person>
    <person id="246" depart="344.40" type="ped">
        <walk from="19371348#1" to="246765183#2" />
    </person>
    <person id="247" depart="345.80" type="ped">
        <walk from="144692954" to="146050879#1" />
    </person>
    <person id="248" depart="347.20" type="ped">
        <walk from="50636516#1" to="-120199713#1" />
    </person>
    <person id="249" depart="348.60" type="ped">
        <walk from="-316667284#4" to="3790916#2" />
    </person>
    <person id="250" depart="350.00" type="ped">
        <walk from="10071036#0" to="31232317#1" />
    </person>
    <person id="251" depart="351.40" type="ped">
        <walk from="28338977#1" to="29099628#1" />
    </person>
    <person id="252" depart="352.80" type="ped">
        <walk from="3790927#3" to="124911345#0" />
    </person>
    <person id="253" depart="354.20" type="ped">
        <walk from="3790920#2" to="144928591" />
    </person>
    <person id="254" depart="355.60" type="ped">
        <walk from="32790537#0" to="145786279#7" />
    </person>
    <person id="255" depart="357.00" type="ped">
        <walk from="-167443078" to="47229154#1" />
    </person>
    <person id="256" depart="358.40" type="ped">
        <walk from="40317918" to="150797549#1" />
    </person>
    <person id="257" depart="359.80" type="ped">
        <walk from="19371348#1" to="10071036#0" />
    </person>
    <person id="258" depart="361.20" type="ped">
        <walk from="167443078" to="-4645439#0" />
    </person>
    <person id="259" depart="362.60" type="ped">
        <walk from="-4016239" to="3790917#3" />
    </person>
    <person id="260" depart="364.00" type="ped">
        <walk from="47229154#1" to="259225344" />
    </person>
    <person id="261" depart="365.40" type="ped">
        <walk from="-3845695#3" to="88890339#2" />
    </person>
    <person id="262" depart="366.80" type="ped">
        <walk from="257527112#0" to="160013419#1" />
    </person>
    <person id="263" depart="368.20" type="ped">
        <walk from="167444032" to="10071036#0" />
    </person>